*SPEF "IEEE 1481-1998"
*DESIGN "IIR_ADV"
*DATE "Sat Nov 13 06:09:08 2021"
*VENDOR "Cadence Design Systems, Inc."
*PROGRAM "Innovus"
*VERSION "17.11-s080_1"
*DESIGN_FLOW "COUPLING C" "PIN_CAP NONE" "NAME_SCOPE LOCAL"
*DIVIDER /
*DELIMITER :
*BUS_DELIMITER []
*T_UNIT 1 NS
*C_UNIT 1 PF
*R_UNIT 1 OHM
*L_UNIT 1 HENRY

// MMMC spef file for corner 'my_rc'

*NAME_MAP

*1 FE_OFN18_VIN
*2 FE_OFN17_VIN
*3 FE_OFN16_VIN
*4 FE_OFN15_VIN
*5 FE_OFN14_VIN
*6 FE_OFN13_VIN
*7 FE_OFN12_VIN
*8 FE_OFN11_RST_n
*9 FE_OFN10_RST_n
*10 FE_OFN9_RST_n
*11 FE_OFN8_RST_n
*12 FE_OFN7_reg4_3
*13 FE_OFN6_reg2_13
*14 FE_OFN5_reg2_1
*15 FE_OFN4_reg2_11
*16 FE_OFN3_reg2_9
*17 FE_OFN2_reg2_7
*18 FE_OFN1_reg2_5
*19 FE_OFN0_reg2_3
*20 DIN[13]
*21 DIN[12]
*22 DIN[11]
*23 DIN[10]
*24 DIN[9]
*25 DIN[8]
*26 DIN[7]
*27 DIN[6]
*28 DIN[5]
*29 DIN[4]
*30 DIN[3]
*31 DIN[2]
*32 DIN[1]
*33 DIN[0]
*34 B0[13]
*35 B0[12]
*36 B0[11]
*37 B0[10]
*38 B0[9]
*39 B0[8]
*40 B0[7]
*41 B0[6]
*42 B0[5]
*43 B0[4]
*44 B0[3]
*45 B0[2]
*46 B0[1]
*47 B0[0]
*48 B1[13]
*49 B1[12]
*50 B1[11]
*51 B1[10]
*52 B1[9]
*53 B1[8]
*54 B1[7]
*55 B1[6]
*56 B1[5]
*57 B1[4]
*58 B1[3]
*59 B1[2]
*60 B1[1]
*61 B1[0]
*62 B2[13]
*63 B2[12]
*64 B2[11]
*65 B2[10]
*66 B2[9]
*67 B2[8]
*68 B2[7]
*69 B2[6]
*70 B2[5]
*71 B2[4]
*72 B2[3]
*73 B2[2]
*74 B2[1]
*75 B2[0]
*76 B3[13]
*77 B3[12]
*78 B3[11]
*79 B3[10]
*80 B3[9]
*81 B3[8]
*82 B3[7]
*83 B3[6]
*84 B3[5]
*85 B3[4]
*86 B3[3]
*87 B3[2]
*88 B3[1]
*89 B3[0]
*90 A1[13]
*91 A1[12]
*92 A1[11]
*93 A1[10]
*94 A1[9]
*95 A1[8]
*96 A1[7]
*97 A1[6]
*98 A1[5]
*99 A1[4]
*100 A1[3]
*101 A1[2]
*102 A1[1]
*103 A1[0]
*104 A2[13]
*105 A2[12]
*106 A2[11]
*107 A2[10]
*108 A2[9]
*109 A2[8]
*110 A2[7]
*111 A2[6]
*112 A2[5]
*113 A2[4]
*114 A2[3]
*115 A2[2]
*116 A2[1]
*117 A2[0]
*118 DOUT[13]
*119 DOUT[12]
*120 DOUT[11]
*121 DOUT[10]
*122 DOUT[9]
*123 DOUT[8]
*124 DOUT[7]
*125 DOUT[6]
*126 DOUT[5]
*127 DOUT[4]
*128 DOUT[3]
*129 DOUT[2]
*130 DOUT[1]
*131 DOUT[0]
*132 CLK
*133 RST_n
*134 VIN
*135 VOUT
*136 n2
*137 n3
*138 n4
*139 n5
*140 n6
*141 n7
*142 n8
*143 n9
*144 n10
*145 n11
*146 n12
*147 n13
*148 n14
*149 n15
*150 n16
*151 n17
*152 n18
*153 n19
*154 n20
*155 n21
*156 n22
*157 n23
*158 n24
*159 n25
*160 n26
*161 n27
*162 n28
*163 n29
*164 n30
*165 n31
*166 n32
*167 n33
*168 n34
*169 n35
*170 n36
*171 n37
*172 n38
*173 n39
*174 n40
*175 n41
*176 n42
*177 n43
*178 n44
*179 n45
*180 n46
*181 REGISTER1_n42
*182 REGISTER1_n41
*183 REGISTER1_n40
*184 REGISTER1_n39
*185 REGISTER1_n38
*186 REGISTER1_n37
*187 REGISTER1_n36
*188 REGISTER1_n35
*189 REGISTER1_n34
*190 REGISTER1_n33
*191 REGISTER1_n32
*192 REGISTER1_n31
*193 REGISTER1_n30
*194 REGISTER1_n29
*195 REGISTER1_n28
*196 REGISTER1_n27
*197 REGISTER1_n26
*198 REGISTER1_n25
*199 REGISTER1_n24
*200 REGISTER1_n23
*201 REGISTER1_n22
*202 REGISTER1_n21
*203 REGISTER1_n20
*204 REGISTER1_n19
*205 REGISTER1_n18
*206 REGISTER1_n17
*207 REGISTER1_n16
*208 REGISTER1_n15
*209 REGISTER1_n14
*210 REGISTER1_n13
*211 REGISTER1_n12
*212 REGISTER1_n11
*213 REGISTER1_n10
*214 REGISTER1_n9
*215 REGISTER1_n8
*216 REGISTER1_n7
*217 REGISTER1_n6
*218 REGISTER1_n5
*219 REGISTER1_n4
*220 REGISTER1_n3
*221 REGISTER1_n2
*222 REGISTER1_n1
*223 p6_mult_21_n805
*224 p6_mult_21_n804
*225 p6_mult_21_n803
*226 p6_mult_21_n802
*227 p6_mult_21_n801
*228 p6_mult_21_n800
*229 p6_mult_21_n799
*230 p6_mult_21_n798
*231 p6_mult_21_n797
*232 p6_mult_21_n796
*233 p6_mult_21_n795
*234 p6_mult_21_n794
*235 p6_mult_21_n793
*236 p6_mult_21_n792
*237 p6_mult_21_n791
*238 p6_mult_21_n790
*239 p6_mult_21_n789
*240 p6_mult_21_n788
*241 p6_mult_21_n787
*242 p6_mult_21_n786
*243 p6_mult_21_n785
*244 p6_mult_21_n784
*245 p6_mult_21_n783
*246 p6_mult_21_n782
*247 p6_mult_21_n781
*248 p6_mult_21_n780
*249 p6_mult_21_n779
*250 p6_mult_21_n778
*251 p6_mult_21_n777
*252 p6_mult_21_n776
*253 p6_mult_21_n775
*254 p6_mult_21_n774
*255 p6_mult_21_n773
*256 p6_mult_21_n772
*257 p6_mult_21_n771
*258 p6_mult_21_n770
*259 p6_mult_21_n769
*260 p6_mult_21_n768
*261 p6_mult_21_n767
*262 p6_mult_21_n766
*263 p6_mult_21_n765
*264 p6_mult_21_n764
*265 p6_mult_21_n763
*266 p6_mult_21_n762
*267 p6_mult_21_n761
*268 p6_mult_21_n760
*269 p6_mult_21_n759
*270 p6_mult_21_n758
*271 p6_mult_21_n757
*272 p6_mult_21_n756
*273 p6_mult_21_n755
*274 p6_mult_21_n754
*275 p6_mult_21_n753
*276 p6_mult_21_n752
*277 p6_mult_21_n751
*278 p6_mult_21_n750
*279 p6_mult_21_n749
*280 p6_mult_21_n748
*281 p6_mult_21_n747
*282 p6_mult_21_n746
*283 p6_mult_21_n745
*284 p6_mult_21_n744
*285 p6_mult_21_n743
*286 p6_mult_21_n742
*287 p6_mult_21_n741
*288 p6_mult_21_n740
*289 p6_mult_21_n739
*290 p6_mult_21_n738
*291 p6_mult_21_n737
*292 p6_mult_21_n736
*293 p6_mult_21_n735
*294 p6_mult_21_n734
*295 p6_mult_21_n733
*296 p6_mult_21_n732
*297 p6_mult_21_n731
*298 p6_mult_21_n730
*299 p6_mult_21_n729
*300 p6_mult_21_n728
*301 p6_mult_21_n727
*302 p6_mult_21_n726
*303 p6_mult_21_n725
*304 p6_mult_21_n724
*305 p6_mult_21_n723
*306 p6_mult_21_n722
*307 p6_mult_21_n721
*308 p6_mult_21_n720
*309 p6_mult_21_n719
*310 p6_mult_21_n718
*311 p6_mult_21_n717
*312 p6_mult_21_n716
*313 p6_mult_21_n715
*314 p6_mult_21_n714
*315 p6_mult_21_n713
*316 p6_mult_21_n712
*317 p6_mult_21_n711
*318 p6_mult_21_n710
*319 p6_mult_21_n709
*320 p6_mult_21_n708
*321 p6_mult_21_n707
*322 p6_mult_21_n706
*323 p6_mult_21_n705
*324 p6_mult_21_n704
*325 p6_mult_21_n703
*326 p6_mult_21_n702
*327 p6_mult_21_n701
*328 p6_mult_21_n700
*329 p6_mult_21_n699
*330 p6_mult_21_n698
*331 p6_mult_21_n697
*332 p6_mult_21_n696
*333 p6_mult_21_n695
*334 p6_mult_21_n694
*335 p6_mult_21_n693
*336 p6_mult_21_n692
*337 p6_mult_21_n691
*338 p6_mult_21_n690
*339 p6_mult_21_n689
*340 p6_mult_21_n688
*341 p6_mult_21_n687
*342 p6_mult_21_n686
*343 p6_mult_21_n685
*344 p6_mult_21_n684
*345 p6_mult_21_n683
*346 p6_mult_21_n682
*347 p6_mult_21_n681
*348 p6_mult_21_n680
*349 p6_mult_21_n679
*350 p6_mult_21_n678
*351 p6_mult_21_n677
*352 p6_mult_21_n676
*353 p6_mult_21_n675
*354 p6_mult_21_n674
*355 p6_mult_21_n673
*356 p6_mult_21_n672
*357 p6_mult_21_n671
*358 p6_mult_21_n670
*359 p6_mult_21_n669
*360 p6_mult_21_n668
*361 p6_mult_21_n667
*362 p6_mult_21_n666
*363 p6_mult_21_n665
*364 p6_mult_21_n664
*365 p6_mult_21_n663
*366 p6_mult_21_n662
*367 p6_mult_21_n661
*368 p6_mult_21_n660
*369 p6_mult_21_n659
*370 p6_mult_21_n658
*371 p6_mult_21_n657
*372 p6_mult_21_n656
*373 p6_mult_21_n655
*374 p6_mult_21_n654
*375 p6_mult_21_n653
*376 p6_mult_21_n652
*377 p6_mult_21_n651
*378 p6_mult_21_n650
*379 p6_mult_21_n649
*380 p6_mult_21_n648
*381 p6_mult_21_n647
*382 p6_mult_21_n646
*383 p6_mult_21_n645
*384 p6_mult_21_n644
*385 p6_mult_21_n643
*386 p6_mult_21_n642
*387 p6_mult_21_n641
*388 p6_mult_21_n640
*389 p6_mult_21_n639
*390 p6_mult_21_n638
*391 p6_mult_21_n637
*392 p6_mult_21_n636
*393 p6_mult_21_n635
*394 p6_mult_21_n419
*395 p6_mult_21_n418
*396 p6_mult_21_n417
*397 p6_mult_21_n416
*398 p6_mult_21_n415
*399 p6_mult_21_n414
*400 p6_mult_21_n413
*401 p6_mult_21_n412
*402 p6_mult_21_n411
*403 p6_mult_21_n410
*404 p6_mult_21_n409
*405 p6_mult_21_n408
*406 p6_mult_21_n406
*407 p6_mult_21_n405
*408 p6_mult_21_n404
*409 p6_mult_21_n403
*410 p6_mult_21_n402
*411 p6_mult_21_n401
*412 p6_mult_21_n400
*413 p6_mult_21_n399
*414 p6_mult_21_n398
*415 p6_mult_21_n397
*416 p6_mult_21_n396
*417 p6_mult_21_n395
*418 p6_mult_21_n394
*419 p6_mult_21_n393
*420 p6_mult_21_n392
*421 p6_mult_21_n391
*422 p6_mult_21_n390
*423 p6_mult_21_n389
*424 p6_mult_21_n388
*425 p6_mult_21_n387
*426 p6_mult_21_n386
*427 p6_mult_21_n385
*428 p6_mult_21_n384
*429 p6_mult_21_n382
*430 p6_mult_21_n381
*431 p6_mult_21_n380
*432 p6_mult_21_n379
*433 p6_mult_21_n378
*434 p6_mult_21_n377
*435 p6_mult_21_n376
*436 p6_mult_21_n375
*437 p6_mult_21_n374
*438 p6_mult_21_n373
*439 p6_mult_21_n372
*440 p6_mult_21_n371
*441 p6_mult_21_n370
*442 p6_mult_21_n369
*443 p6_mult_21_n368
*444 p6_mult_21_n367
*445 p6_mult_21_n366
*446 p6_mult_21_n365
*447 p6_mult_21_n364
*448 p6_mult_21_n363
*449 p6_mult_21_n362
*450 p6_mult_21_n361
*451 p6_mult_21_n360
*452 p6_mult_21_n359
*453 p6_mult_21_n358
*454 p6_mult_21_n357
*455 p6_mult_21_n356
*456 p6_mult_21_n355
*457 p6_mult_21_n354
*458 p6_mult_21_n353
*459 p6_mult_21_n352
*460 p6_mult_21_n351
*461 p6_mult_21_n350
*462 p6_mult_21_n349
*463 p6_mult_21_n348
*464 p6_mult_21_n346
*465 p6_mult_21_n345
*466 p6_mult_21_n344
*467 p6_mult_21_n343
*468 p6_mult_21_n342
*469 p6_mult_21_n341
*470 p6_mult_21_n340
*471 p6_mult_21_n339
*472 p6_mult_21_n338
*473 p6_mult_21_n337
*474 p6_mult_21_n336
*475 p6_mult_21_n335
*476 p6_mult_21_n334
*477 p6_mult_21_n333
*478 p6_mult_21_n332
*479 p6_mult_21_n331
*480 p6_mult_21_n330
*481 p6_mult_21_n329
*482 p6_mult_21_n328
*483 p6_mult_21_n327
*484 p6_mult_21_n326
*485 p6_mult_21_n325
*486 p6_mult_21_n321
*487 p6_mult_21_n320
*488 p6_mult_21_n319
*489 p6_mult_21_n318
*490 p6_mult_21_n317
*491 p6_mult_21_n316
*492 p6_mult_21_n315
*493 p6_mult_21_n314
*494 p6_mult_21_n313
*495 p6_mult_21_n312
*496 p6_mult_21_n311
*497 p6_mult_21_n310
*498 p6_mult_21_n309
*499 p6_mult_21_n308
*500 p6_mult_21_n307
*501 p6_mult_21_n306
*502 p6_mult_21_n305
*503 p6_mult_21_n304
*504 p6_mult_21_n303
*505 p6_mult_21_n302
*506 p6_mult_21_n301
*507 p6_mult_21_n300
*508 p6_mult_21_n299
*509 p6_mult_21_n298
*510 p6_mult_21_n297
*511 p6_mult_21_n296
*512 p6_mult_21_n295
*513 p6_mult_21_n294
*514 p6_mult_21_n293
*515 p6_mult_21_n292
*516 p6_mult_21_n291
*517 p6_mult_21_n290
*518 p6_mult_21_n289
*519 p6_mult_21_n288
*520 p6_mult_21_n287
*521 p6_mult_21_n286
*522 p6_mult_21_n285
*523 p6_mult_21_n284
*524 p6_mult_21_n283
*525 p6_mult_21_n282
*526 p6_mult_21_n281
*527 p6_mult_21_n280
*528 p6_mult_21_n279
*529 p6_mult_21_n278
*530 p6_mult_21_n277
*531 p6_mult_21_n276
*532 p6_mult_21_n275
*533 p6_mult_21_n274
*534 p6_mult_21_n273
*535 p6_mult_21_n272
*536 p6_mult_21_n271
*537 p6_mult_21_n270
*538 p6_mult_21_n269
*539 p6_mult_21_n268
*540 p6_mult_21_n267
*541 p6_mult_21_n266
*542 p6_mult_21_n265
*543 p6_mult_21_n264
*544 p6_mult_21_n263
*545 p6_mult_21_n262
*546 p6_mult_21_n261
*547 p6_mult_21_n260
*548 p6_mult_21_n259
*549 p6_mult_21_n258
*550 p6_mult_21_n257
*551 p6_mult_21_n256
*552 p6_mult_21_n255
*553 p6_mult_21_n254
*554 p6_mult_21_n253
*555 p6_mult_21_n252
*556 p6_mult_21_n251
*557 p6_mult_21_n250
*558 p6_mult_21_n249
*559 p6_mult_21_n248
*560 p6_mult_21_n247
*561 p6_mult_21_n246
*562 p6_mult_21_n245
*563 p6_mult_21_n244
*564 p6_mult_21_n243
*565 p6_mult_21_n242
*566 p6_mult_21_n241
*567 p6_mult_21_n240
*568 p6_mult_21_n239
*569 p6_mult_21_n238
*570 p6_mult_21_n237
*571 p6_mult_21_n236
*572 p6_mult_21_n235
*573 p6_mult_21_n234
*574 p6_mult_21_n233
*575 p6_mult_21_n232
*576 p6_mult_21_n231
*577 p6_mult_21_n230
*578 p6_mult_21_n229
*579 p6_mult_21_n228
*580 p6_mult_21_n227
*581 p6_mult_21_n226
*582 p6_mult_21_n225
*583 p6_mult_21_n224
*584 p6_mult_21_n223
*585 p6_mult_21_n222
*586 p6_mult_21_n221
*587 p6_mult_21_n220
*588 p6_mult_21_n219
*589 p6_mult_21_n218
*590 p6_mult_21_n217
*591 p6_mult_21_n216
*592 p6_mult_21_n215
*593 p6_mult_21_n214
*594 p6_mult_21_n213
*595 p6_mult_21_n212
*596 p6_mult_21_n211
*597 p6_mult_21_n210
*598 p6_mult_21_n209
*599 p6_mult_21_n208
*600 p6_mult_21_n207
*601 p6_mult_21_n206
*602 p6_mult_21_n205
*603 p6_mult_21_n204
*604 p6_mult_21_n203
*605 p6_mult_21_n202
*606 p6_mult_21_n201
*607 p6_mult_21_n200
*608 p6_mult_21_n199
*609 p6_mult_21_n198
*610 p6_mult_21_n197
*611 p6_mult_21_n196
*612 p6_mult_21_n195
*613 p6_mult_21_n194
*614 p6_mult_21_n193
*615 p6_mult_21_n192
*616 p6_mult_21_n191
*617 p6_mult_21_n190
*618 p6_mult_21_n189
*619 p6_mult_21_n188
*620 p6_mult_21_n187
*621 p6_mult_21_n186
*622 p6_mult_21_n185
*623 p6_mult_21_n184
*624 p6_mult_21_n183
*625 p6_mult_21_n182
*626 p6_mult_21_n181
*627 p6_mult_21_n180
*628 p6_mult_21_n179
*629 p6_mult_21_n178
*630 p6_mult_21_n177
*631 p6_mult_21_n176
*632 p6_mult_21_n175
*633 p6_mult_21_n174
*634 p6_mult_21_n173
*635 p6_mult_21_n172
*636 p6_mult_21_n171
*637 p6_mult_21_n170
*638 p6_mult_21_n169
*639 p6_mult_21_n168
*640 p6_mult_21_n167
*641 p6_mult_21_n166
*642 p6_mult_21_n165
*643 p6_mult_21_n164
*644 p6_mult_21_n163
*645 p6_mult_21_n162
*646 p6_mult_21_n149
*647 p6_mult_21_n148
*648 p6_mult_21_n147
*649 p6_mult_21_n146
*650 p6_mult_21_n145
*651 p6_mult_21_n144
*652 p6_mult_21_n143
*653 p6_mult_21_n142
*654 p6_mult_21_n141
*655 p6_mult_21_n140
*656 p6_mult_21_n139
*657 p6_mult_21_n138
*658 p6_mult_21_n137
*659 p6_mult_21_n136
*660 REG1_1_n89
*661 REG1_1_n88
*662 REG1_1_n87
*663 REG1_1_n86
*664 REG1_1_n85
*665 REG1_1_n84
*666 REG1_1_n83
*667 REG1_1_n82
*668 REG1_1_n81
*669 REG1_1_n80
*670 REG1_1_n79
*671 REG1_1_n78
*672 REG1_1_n77
*673 REG1_1_n76
*674 REG1_1_n75
*675 REG1_1_n74
*676 REG1_1_n73
*677 REG1_1_n72
*678 REG1_1_n71
*679 REG1_1_n70
*680 REG1_1_n69
*681 REG1_1_n68
*682 REG1_1_n67
*683 REG1_1_n66
*684 REG1_1_n65
*685 REG1_1_n64
*686 REG1_1_n63
*687 REG1_1_n62
*688 REG1_1_n61
*689 REG1_1_n60
*690 REG1_1_n59
*691 REG1_1_n58
*692 REG1_1_n57
*693 REG1_1_n56
*694 REG1_1_n55
*695 REG1_1_n54
*696 REG1_1_n53
*697 REG1_1_n52
*698 REG1_1_n51
*699 REG1_1_n50
*700 REG1_1_n49
*701 REG1_1_n48
*702 REGISTER2_n89
*703 REGISTER2_n88
*704 REGISTER2_n87
*705 REGISTER2_n86
*706 REGISTER2_n85
*707 REGISTER2_n84
*708 REGISTER2_n83
*709 REGISTER2_n82
*710 REGISTER2_n81
*711 REGISTER2_n80
*712 REGISTER2_n79
*713 REGISTER2_n78
*714 REGISTER2_n77
*715 REGISTER2_n76
*716 REGISTER2_n75
*717 REGISTER2_n74
*718 REGISTER2_n73
*719 REGISTER2_n72
*720 REGISTER2_n71
*721 REGISTER2_n70
*722 REGISTER2_n69
*723 REGISTER2_n68
*724 REGISTER2_n67
*725 REGISTER2_n66
*726 REGISTER2_n65
*727 REGISTER2_n64
*728 REGISTER2_n63
*729 REGISTER2_n62
*730 REGISTER2_n61
*731 REGISTER2_n60
*732 REGISTER2_n59
*733 REGISTER2_n58
*734 REGISTER2_n57
*735 REGISTER2_n56
*736 REGISTER2_n55
*737 REGISTER2_n54
*738 REGISTER2_n53
*739 REGISTER2_n52
*740 REGISTER2_n51
*741 REGISTER2_n50
*742 REGISTER2_n49
*743 REGISTER2_n48
*744 p7_mult_21_n805
*745 p7_mult_21_n804
*746 p7_mult_21_n803
*747 p7_mult_21_n802
*748 p7_mult_21_n801
*749 p7_mult_21_n800
*750 p7_mult_21_n799
*751 p7_mult_21_n798
*752 p7_mult_21_n797
*753 p7_mult_21_n796
*754 p7_mult_21_n795
*755 p7_mult_21_n794
*756 p7_mult_21_n793
*757 p7_mult_21_n792
*758 p7_mult_21_n791
*759 p7_mult_21_n790
*760 p7_mult_21_n789
*761 p7_mult_21_n788
*762 p7_mult_21_n787
*763 p7_mult_21_n786
*764 p7_mult_21_n785
*765 p7_mult_21_n784
*766 p7_mult_21_n783
*767 p7_mult_21_n782
*768 p7_mult_21_n781
*769 p7_mult_21_n780
*770 p7_mult_21_n779
*771 p7_mult_21_n778
*772 p7_mult_21_n777
*773 p7_mult_21_n776
*774 p7_mult_21_n775
*775 p7_mult_21_n774
*776 p7_mult_21_n773
*777 p7_mult_21_n772
*778 p7_mult_21_n771
*779 p7_mult_21_n770
*780 p7_mult_21_n769
*781 p7_mult_21_n768
*782 p7_mult_21_n767
*783 p7_mult_21_n766
*784 p7_mult_21_n765
*785 p7_mult_21_n764
*786 p7_mult_21_n763
*787 p7_mult_21_n762
*788 p7_mult_21_n761
*789 p7_mult_21_n760
*790 p7_mult_21_n759
*791 p7_mult_21_n758
*792 p7_mult_21_n757
*793 p7_mult_21_n756
*794 p7_mult_21_n755
*795 p7_mult_21_n754
*796 p7_mult_21_n753
*797 p7_mult_21_n752
*798 p7_mult_21_n751
*799 p7_mult_21_n750
*800 p7_mult_21_n749
*801 p7_mult_21_n748
*802 p7_mult_21_n747
*803 p7_mult_21_n746
*804 p7_mult_21_n745
*805 p7_mult_21_n744
*806 p7_mult_21_n743
*807 p7_mult_21_n742
*808 p7_mult_21_n741
*809 p7_mult_21_n740
*810 p7_mult_21_n739
*811 p7_mult_21_n738
*812 p7_mult_21_n737
*813 p7_mult_21_n736
*814 p7_mult_21_n735
*815 p7_mult_21_n734
*816 p7_mult_21_n733
*817 p7_mult_21_n732
*818 p7_mult_21_n731
*819 p7_mult_21_n730
*820 p7_mult_21_n729
*821 p7_mult_21_n728
*822 p7_mult_21_n727
*823 p7_mult_21_n726
*824 p7_mult_21_n725
*825 p7_mult_21_n724
*826 p7_mult_21_n723
*827 p7_mult_21_n722
*828 p7_mult_21_n721
*829 p7_mult_21_n720
*830 p7_mult_21_n719
*831 p7_mult_21_n718
*832 p7_mult_21_n717
*833 p7_mult_21_n716
*834 p7_mult_21_n715
*835 p7_mult_21_n714
*836 p7_mult_21_n713
*837 p7_mult_21_n712
*838 p7_mult_21_n711
*839 p7_mult_21_n710
*840 p7_mult_21_n709
*841 p7_mult_21_n708
*842 p7_mult_21_n707
*843 p7_mult_21_n706
*844 p7_mult_21_n705
*845 p7_mult_21_n704
*846 p7_mult_21_n703
*847 p7_mult_21_n702
*848 p7_mult_21_n701
*849 p7_mult_21_n700
*850 p7_mult_21_n699
*851 p7_mult_21_n698
*852 p7_mult_21_n697
*853 p7_mult_21_n696
*854 p7_mult_21_n695
*855 p7_mult_21_n694
*856 p7_mult_21_n693
*857 p7_mult_21_n692
*858 p7_mult_21_n691
*859 p7_mult_21_n690
*860 p7_mult_21_n689
*861 p7_mult_21_n688
*862 p7_mult_21_n687
*863 p7_mult_21_n686
*864 p7_mult_21_n685
*865 p7_mult_21_n684
*866 p7_mult_21_n683
*867 p7_mult_21_n682
*868 p7_mult_21_n681
*869 p7_mult_21_n680
*870 p7_mult_21_n679
*871 p7_mult_21_n678
*872 p7_mult_21_n677
*873 p7_mult_21_n676
*874 p7_mult_21_n675
*875 p7_mult_21_n674
*876 p7_mult_21_n673
*877 p7_mult_21_n672
*878 p7_mult_21_n671
*879 p7_mult_21_n670
*880 p7_mult_21_n669
*881 p7_mult_21_n668
*882 p7_mult_21_n667
*883 p7_mult_21_n666
*884 p7_mult_21_n665
*885 p7_mult_21_n664
*886 p7_mult_21_n663
*887 p7_mult_21_n662
*888 p7_mult_21_n661
*889 p7_mult_21_n660
*890 p7_mult_21_n659
*891 p7_mult_21_n658
*892 p7_mult_21_n657
*893 p7_mult_21_n656
*894 p7_mult_21_n655
*895 p7_mult_21_n654
*896 p7_mult_21_n653
*897 p7_mult_21_n652
*898 p7_mult_21_n651
*899 p7_mult_21_n650
*900 p7_mult_21_n649
*901 p7_mult_21_n648
*902 p7_mult_21_n647
*903 p7_mult_21_n646
*904 p7_mult_21_n645
*905 p7_mult_21_n644
*906 p7_mult_21_n643
*907 p7_mult_21_n642
*908 p7_mult_21_n641
*909 p7_mult_21_n640
*910 p7_mult_21_n639
*911 p7_mult_21_n638
*912 p7_mult_21_n637
*913 p7_mult_21_n636
*914 p7_mult_21_n635
*915 p7_mult_21_n419
*916 p7_mult_21_n418
*917 p7_mult_21_n417
*918 p7_mult_21_n416
*919 p7_mult_21_n415
*920 p7_mult_21_n414
*921 p7_mult_21_n413
*922 p7_mult_21_n412
*923 p7_mult_21_n411
*924 p7_mult_21_n410
*925 p7_mult_21_n409
*926 p7_mult_21_n408
*927 p7_mult_21_n406
*928 p7_mult_21_n405
*929 p7_mult_21_n404
*930 p7_mult_21_n403
*931 p7_mult_21_n402
*932 p7_mult_21_n401
*933 p7_mult_21_n400
*934 p7_mult_21_n399
*935 p7_mult_21_n398
*936 p7_mult_21_n397
*937 p7_mult_21_n396
*938 p7_mult_21_n395
*939 p7_mult_21_n394
*940 p7_mult_21_n393
*941 p7_mult_21_n392
*942 p7_mult_21_n391
*943 p7_mult_21_n390
*944 p7_mult_21_n389
*945 p7_mult_21_n388
*946 p7_mult_21_n387
*947 p7_mult_21_n386
*948 p7_mult_21_n385
*949 p7_mult_21_n384
*950 p7_mult_21_n382
*951 p7_mult_21_n381
*952 p7_mult_21_n380
*953 p7_mult_21_n379
*954 p7_mult_21_n378
*955 p7_mult_21_n377
*956 p7_mult_21_n376
*957 p7_mult_21_n375
*958 p7_mult_21_n374
*959 p7_mult_21_n373
*960 p7_mult_21_n372
*961 p7_mult_21_n371
*962 p7_mult_21_n370
*963 p7_mult_21_n369
*964 p7_mult_21_n368
*965 p7_mult_21_n367
*966 p7_mult_21_n366
*967 p7_mult_21_n365
*968 p7_mult_21_n364
*969 p7_mult_21_n363
*970 p7_mult_21_n362
*971 p7_mult_21_n361
*972 p7_mult_21_n360
*973 p7_mult_21_n359
*974 p7_mult_21_n358
*975 p7_mult_21_n357
*976 p7_mult_21_n356
*977 p7_mult_21_n355
*978 p7_mult_21_n354
*979 p7_mult_21_n353
*980 p7_mult_21_n352
*981 p7_mult_21_n351
*982 p7_mult_21_n350
*983 p7_mult_21_n349
*984 p7_mult_21_n348
*985 p7_mult_21_n346
*986 p7_mult_21_n345
*987 p7_mult_21_n344
*988 p7_mult_21_n343
*989 p7_mult_21_n342
*990 p7_mult_21_n341
*991 p7_mult_21_n340
*992 p7_mult_21_n339
*993 p7_mult_21_n338
*994 p7_mult_21_n337
*995 p7_mult_21_n336
*996 p7_mult_21_n335
*997 p7_mult_21_n334
*998 p7_mult_21_n333
*999 p7_mult_21_n332
*1000 p7_mult_21_n331
*1001 p7_mult_21_n330
*1002 p7_mult_21_n329
*1003 p7_mult_21_n328
*1004 p7_mult_21_n327
*1005 p7_mult_21_n326
*1006 p7_mult_21_n325
*1007 p7_mult_21_n321
*1008 p7_mult_21_n320
*1009 p7_mult_21_n319
*1010 p7_mult_21_n318
*1011 p7_mult_21_n317
*1012 p7_mult_21_n316
*1013 p7_mult_21_n315
*1014 p7_mult_21_n314
*1015 p7_mult_21_n313
*1016 p7_mult_21_n312
*1017 p7_mult_21_n311
*1018 p7_mult_21_n310
*1019 p7_mult_21_n309
*1020 p7_mult_21_n308
*1021 p7_mult_21_n307
*1022 p7_mult_21_n306
*1023 p7_mult_21_n305
*1024 p7_mult_21_n304
*1025 p7_mult_21_n303
*1026 p7_mult_21_n302
*1027 p7_mult_21_n301
*1028 p7_mult_21_n300
*1029 p7_mult_21_n299
*1030 p7_mult_21_n298
*1031 p7_mult_21_n297
*1032 p7_mult_21_n296
*1033 p7_mult_21_n295
*1034 p7_mult_21_n294
*1035 p7_mult_21_n293
*1036 p7_mult_21_n292
*1037 p7_mult_21_n291
*1038 p7_mult_21_n290
*1039 p7_mult_21_n289
*1040 p7_mult_21_n288
*1041 p7_mult_21_n287
*1042 p7_mult_21_n286
*1043 p7_mult_21_n285
*1044 p7_mult_21_n284
*1045 p7_mult_21_n283
*1046 p7_mult_21_n282
*1047 p7_mult_21_n281
*1048 p7_mult_21_n280
*1049 p7_mult_21_n279
*1050 p7_mult_21_n278
*1051 p7_mult_21_n277
*1052 p7_mult_21_n276
*1053 p7_mult_21_n275
*1054 p7_mult_21_n274
*1055 p7_mult_21_n273
*1056 p7_mult_21_n272
*1057 p7_mult_21_n271
*1058 p7_mult_21_n270
*1059 p7_mult_21_n269
*1060 p7_mult_21_n268
*1061 p7_mult_21_n267
*1062 p7_mult_21_n266
*1063 p7_mult_21_n265
*1064 p7_mult_21_n264
*1065 p7_mult_21_n263
*1066 p7_mult_21_n262
*1067 p7_mult_21_n261
*1068 p7_mult_21_n260
*1069 p7_mult_21_n259
*1070 p7_mult_21_n258
*1071 p7_mult_21_n257
*1072 p7_mult_21_n256
*1073 p7_mult_21_n255
*1074 p7_mult_21_n254
*1075 p7_mult_21_n253
*1076 p7_mult_21_n252
*1077 p7_mult_21_n251
*1078 p7_mult_21_n250
*1079 p7_mult_21_n249
*1080 p7_mult_21_n248
*1081 p7_mult_21_n247
*1082 p7_mult_21_n246
*1083 p7_mult_21_n245
*1084 p7_mult_21_n244
*1085 p7_mult_21_n243
*1086 p7_mult_21_n242
*1087 p7_mult_21_n241
*1088 p7_mult_21_n240
*1089 p7_mult_21_n239
*1090 p7_mult_21_n238
*1091 p7_mult_21_n237
*1092 p7_mult_21_n236
*1093 p7_mult_21_n235
*1094 p7_mult_21_n234
*1095 p7_mult_21_n233
*1096 p7_mult_21_n232
*1097 p7_mult_21_n231
*1098 p7_mult_21_n230
*1099 p7_mult_21_n229
*1100 p7_mult_21_n228
*1101 p7_mult_21_n227
*1102 p7_mult_21_n226
*1103 p7_mult_21_n225
*1104 p7_mult_21_n224
*1105 p7_mult_21_n223
*1106 p7_mult_21_n222
*1107 p7_mult_21_n221
*1108 p7_mult_21_n220
*1109 p7_mult_21_n219
*1110 p7_mult_21_n218
*1111 p7_mult_21_n217
*1112 p7_mult_21_n216
*1113 p7_mult_21_n215
*1114 p7_mult_21_n214
*1115 p7_mult_21_n213
*1116 p7_mult_21_n212
*1117 p7_mult_21_n211
*1118 p7_mult_21_n210
*1119 p7_mult_21_n209
*1120 p7_mult_21_n208
*1121 p7_mult_21_n207
*1122 p7_mult_21_n206
*1123 p7_mult_21_n205
*1124 p7_mult_21_n204
*1125 p7_mult_21_n203
*1126 p7_mult_21_n202
*1127 p7_mult_21_n201
*1128 p7_mult_21_n200
*1129 p7_mult_21_n199
*1130 p7_mult_21_n198
*1131 p7_mult_21_n197
*1132 p7_mult_21_n196
*1133 p7_mult_21_n195
*1134 p7_mult_21_n194
*1135 p7_mult_21_n193
*1136 p7_mult_21_n192
*1137 p7_mult_21_n191
*1138 p7_mult_21_n190
*1139 p7_mult_21_n189
*1140 p7_mult_21_n188
*1141 p7_mult_21_n187
*1142 p7_mult_21_n186
*1143 p7_mult_21_n185
*1144 p7_mult_21_n184
*1145 p7_mult_21_n183
*1146 p7_mult_21_n182
*1147 p7_mult_21_n181
*1148 p7_mult_21_n180
*1149 p7_mult_21_n179
*1150 p7_mult_21_n178
*1151 p7_mult_21_n177
*1152 p7_mult_21_n176
*1153 p7_mult_21_n175
*1154 p7_mult_21_n174
*1155 p7_mult_21_n173
*1156 p7_mult_21_n172
*1157 p7_mult_21_n171
*1158 p7_mult_21_n170
*1159 p7_mult_21_n169
*1160 p7_mult_21_n168
*1161 p7_mult_21_n167
*1162 p7_mult_21_n166
*1163 p7_mult_21_n165
*1164 p7_mult_21_n164
*1165 p7_mult_21_n163
*1166 p7_mult_21_n162
*1167 p7_mult_21_n149
*1168 p7_mult_21_n148
*1169 p7_mult_21_n147
*1170 p7_mult_21_n146
*1171 p7_mult_21_n145
*1172 p7_mult_21_n144
*1173 p7_mult_21_n143
*1174 p7_mult_21_n142
*1175 p7_mult_21_n141
*1176 p7_mult_21_n140
*1177 p7_mult_21_n139
*1178 p7_mult_21_n138
*1179 p7_mult_21_n137
*1180 p7_mult_21_n136
*1181 REG2_1_n89
*1182 REG2_1_n88
*1183 REG2_1_n87
*1184 REG2_1_n86
*1185 REG2_1_n85
*1186 REG2_1_n84
*1187 REG2_1_n83
*1188 REG2_1_n82
*1189 REG2_1_n81
*1190 REG2_1_n80
*1191 REG2_1_n79
*1192 REG2_1_n78
*1193 REG2_1_n77
*1194 REG2_1_n76
*1195 REG2_1_n75
*1196 REG2_1_n74
*1197 REG2_1_n73
*1198 REG2_1_n72
*1199 REG2_1_n71
*1200 REG2_1_n70
*1201 REG2_1_n69
*1202 REG2_1_n68
*1203 REG2_1_n67
*1204 REG2_1_n66
*1205 REG2_1_n65
*1206 REG2_1_n64
*1207 REG2_1_n63
*1208 REG2_1_n62
*1209 REG2_1_n61
*1210 REG2_1_n60
*1211 REG2_1_n59
*1212 REG2_1_n58
*1213 REG2_1_n57
*1214 REG2_1_n56
*1215 REG2_1_n55
*1216 REG2_1_n54
*1217 REG2_1_n53
*1218 REG2_1_n52
*1219 REG2_1_n51
*1220 REG2_1_n50
*1221 REG2_1_n49
*1222 REG2_1_n48
*1223 REGISTER3_n89
*1224 REGISTER3_n88
*1225 REGISTER3_n87
*1226 REGISTER3_n86
*1227 REGISTER3_n85
*1228 REGISTER3_n84
*1229 REGISTER3_n83
*1230 REGISTER3_n82
*1231 REGISTER3_n81
*1232 REGISTER3_n80
*1233 REGISTER3_n79
*1234 REGISTER3_n78
*1235 REGISTER3_n77
*1236 REGISTER3_n76
*1237 REGISTER3_n75
*1238 REGISTER3_n74
*1239 REGISTER3_n73
*1240 REGISTER3_n72
*1241 REGISTER3_n71
*1242 REGISTER3_n70
*1243 REGISTER3_n69
*1244 REGISTER3_n68
*1245 REGISTER3_n67
*1246 REGISTER3_n66
*1247 REGISTER3_n65
*1248 REGISTER3_n64
*1249 REGISTER3_n63
*1250 REGISTER3_n62
*1251 REGISTER3_n61
*1252 REGISTER3_n60
*1253 REGISTER3_n59
*1254 REGISTER3_n58
*1255 REGISTER3_n57
*1256 REGISTER3_n56
*1257 REGISTER3_n55
*1258 REGISTER3_n54
*1259 REGISTER3_n53
*1260 REGISTER3_n52
*1261 REGISTER3_n51
*1262 REGISTER3_n50
*1263 REGISTER3_n49
*1264 REGISTER3_n48
*1265 p8_mult_21_n805
*1266 p8_mult_21_n804
*1267 p8_mult_21_n803
*1268 p8_mult_21_n802
*1269 p8_mult_21_n801
*1270 p8_mult_21_n800
*1271 p8_mult_21_n799
*1272 p8_mult_21_n798
*1273 p8_mult_21_n797
*1274 p8_mult_21_n796
*1275 p8_mult_21_n795
*1276 p8_mult_21_n794
*1277 p8_mult_21_n793
*1278 p8_mult_21_n792
*1279 p8_mult_21_n791
*1280 p8_mult_21_n790
*1281 p8_mult_21_n789
*1282 p8_mult_21_n788
*1283 p8_mult_21_n787
*1284 p8_mult_21_n786
*1285 p8_mult_21_n785
*1286 p8_mult_21_n784
*1287 p8_mult_21_n783
*1288 p8_mult_21_n782
*1289 p8_mult_21_n781
*1290 p8_mult_21_n780
*1291 p8_mult_21_n779
*1292 p8_mult_21_n778
*1293 p8_mult_21_n777
*1294 p8_mult_21_n776
*1295 p8_mult_21_n775
*1296 p8_mult_21_n774
*1297 p8_mult_21_n773
*1298 p8_mult_21_n772
*1299 p8_mult_21_n771
*1300 p8_mult_21_n770
*1301 p8_mult_21_n769
*1302 p8_mult_21_n768
*1303 p8_mult_21_n767
*1304 p8_mult_21_n766
*1305 p8_mult_21_n765
*1306 p8_mult_21_n764
*1307 p8_mult_21_n763
*1308 p8_mult_21_n762
*1309 p8_mult_21_n761
*1310 p8_mult_21_n760
*1311 p8_mult_21_n759
*1312 p8_mult_21_n758
*1313 p8_mult_21_n757
*1314 p8_mult_21_n756
*1315 p8_mult_21_n755
*1316 p8_mult_21_n754
*1317 p8_mult_21_n753
*1318 p8_mult_21_n752
*1319 p8_mult_21_n751
*1320 p8_mult_21_n750
*1321 p8_mult_21_n749
*1322 p8_mult_21_n748
*1323 p8_mult_21_n747
*1324 p8_mult_21_n746
*1325 p8_mult_21_n745
*1326 p8_mult_21_n744
*1327 p8_mult_21_n743
*1328 p8_mult_21_n742
*1329 p8_mult_21_n741
*1330 p8_mult_21_n740
*1331 p8_mult_21_n739
*1332 p8_mult_21_n738
*1333 p8_mult_21_n737
*1334 p8_mult_21_n736
*1335 p8_mult_21_n735
*1336 p8_mult_21_n734
*1337 p8_mult_21_n733
*1338 p8_mult_21_n732
*1339 p8_mult_21_n731
*1340 p8_mult_21_n730
*1341 p8_mult_21_n729
*1342 p8_mult_21_n728
*1343 p8_mult_21_n727
*1344 p8_mult_21_n726
*1345 p8_mult_21_n725
*1346 p8_mult_21_n724
*1347 p8_mult_21_n723
*1348 p8_mult_21_n722
*1349 p8_mult_21_n721
*1350 p8_mult_21_n720
*1351 p8_mult_21_n719
*1352 p8_mult_21_n718
*1353 p8_mult_21_n717
*1354 p8_mult_21_n716
*1355 p8_mult_21_n715
*1356 p8_mult_21_n714
*1357 p8_mult_21_n713
*1358 p8_mult_21_n712
*1359 p8_mult_21_n711
*1360 p8_mult_21_n710
*1361 p8_mult_21_n709
*1362 p8_mult_21_n708
*1363 p8_mult_21_n707
*1364 p8_mult_21_n706
*1365 p8_mult_21_n705
*1366 p8_mult_21_n704
*1367 p8_mult_21_n703
*1368 p8_mult_21_n702
*1369 p8_mult_21_n701
*1370 p8_mult_21_n700
*1371 p8_mult_21_n699
*1372 p8_mult_21_n698
*1373 p8_mult_21_n697
*1374 p8_mult_21_n696
*1375 p8_mult_21_n695
*1376 p8_mult_21_n694
*1377 p8_mult_21_n693
*1378 p8_mult_21_n692
*1379 p8_mult_21_n691
*1380 p8_mult_21_n690
*1381 p8_mult_21_n689
*1382 p8_mult_21_n688
*1383 p8_mult_21_n687
*1384 p8_mult_21_n686
*1385 p8_mult_21_n685
*1386 p8_mult_21_n684
*1387 p8_mult_21_n683
*1388 p8_mult_21_n682
*1389 p8_mult_21_n681
*1390 p8_mult_21_n680
*1391 p8_mult_21_n679
*1392 p8_mult_21_n678
*1393 p8_mult_21_n677
*1394 p8_mult_21_n676
*1395 p8_mult_21_n675
*1396 p8_mult_21_n674
*1397 p8_mult_21_n673
*1398 p8_mult_21_n672
*1399 p8_mult_21_n671
*1400 p8_mult_21_n670
*1401 p8_mult_21_n669
*1402 p8_mult_21_n668
*1403 p8_mult_21_n667
*1404 p8_mult_21_n666
*1405 p8_mult_21_n665
*1406 p8_mult_21_n664
*1407 p8_mult_21_n663
*1408 p8_mult_21_n662
*1409 p8_mult_21_n661
*1410 p8_mult_21_n660
*1411 p8_mult_21_n659
*1412 p8_mult_21_n658
*1413 p8_mult_21_n657
*1414 p8_mult_21_n656
*1415 p8_mult_21_n655
*1416 p8_mult_21_n654
*1417 p8_mult_21_n653
*1418 p8_mult_21_n652
*1419 p8_mult_21_n651
*1420 p8_mult_21_n650
*1421 p8_mult_21_n649
*1422 p8_mult_21_n648
*1423 p8_mult_21_n647
*1424 p8_mult_21_n646
*1425 p8_mult_21_n645
*1426 p8_mult_21_n644
*1427 p8_mult_21_n643
*1428 p8_mult_21_n642
*1429 p8_mult_21_n641
*1430 p8_mult_21_n640
*1431 p8_mult_21_n639
*1432 p8_mult_21_n638
*1433 p8_mult_21_n637
*1434 p8_mult_21_n636
*1435 p8_mult_21_n635
*1436 p8_mult_21_n419
*1437 p8_mult_21_n418
*1438 p8_mult_21_n417
*1439 p8_mult_21_n416
*1440 p8_mult_21_n415
*1441 p8_mult_21_n414
*1442 p8_mult_21_n413
*1443 p8_mult_21_n412
*1444 p8_mult_21_n411
*1445 p8_mult_21_n410
*1446 p8_mult_21_n409
*1447 p8_mult_21_n408
*1448 p8_mult_21_n406
*1449 p8_mult_21_n405
*1450 p8_mult_21_n404
*1451 p8_mult_21_n403
*1452 p8_mult_21_n402
*1453 p8_mult_21_n401
*1454 p8_mult_21_n400
*1455 p8_mult_21_n399
*1456 p8_mult_21_n398
*1457 p8_mult_21_n397
*1458 p8_mult_21_n396
*1459 p8_mult_21_n395
*1460 p8_mult_21_n394
*1461 p8_mult_21_n393
*1462 p8_mult_21_n392
*1463 p8_mult_21_n391
*1464 p8_mult_21_n390
*1465 p8_mult_21_n389
*1466 p8_mult_21_n388
*1467 p8_mult_21_n387
*1468 p8_mult_21_n386
*1469 p8_mult_21_n385
*1470 p8_mult_21_n384
*1471 p8_mult_21_n382
*1472 p8_mult_21_n381
*1473 p8_mult_21_n380
*1474 p8_mult_21_n379
*1475 p8_mult_21_n378
*1476 p8_mult_21_n377
*1477 p8_mult_21_n376
*1478 p8_mult_21_n375
*1479 p8_mult_21_n374
*1480 p8_mult_21_n373
*1481 p8_mult_21_n372
*1482 p8_mult_21_n371
*1483 p8_mult_21_n370
*1484 p8_mult_21_n369
*1485 p8_mult_21_n368
*1486 p8_mult_21_n367
*1487 p8_mult_21_n366
*1488 p8_mult_21_n365
*1489 p8_mult_21_n364
*1490 p8_mult_21_n363
*1491 p8_mult_21_n362
*1492 p8_mult_21_n361
*1493 p8_mult_21_n360
*1494 p8_mult_21_n359
*1495 p8_mult_21_n358
*1496 p8_mult_21_n357
*1497 p8_mult_21_n356
*1498 p8_mult_21_n355
*1499 p8_mult_21_n354
*1500 p8_mult_21_n353
*1501 p8_mult_21_n352
*1502 p8_mult_21_n351
*1503 p8_mult_21_n350
*1504 p8_mult_21_n349