*SPEF "IEEE 1481-1998"
*DESIGN "IIR_CA"
*DATE "Wed Oct 24 14:23:16 2018"
*VENDOR "Cadence Design Systems, Inc."
*PROGRAM "Innovus"
*VERSION "17.11-s080_1"
*DESIGN_FLOW "COUPLING C" "PIN_CAP NONE" "NAME_SCOPE LOCAL"
*DIVIDER /
*DELIMITER :
*BUS_DELIMITER []
*T_UNIT 1 NS
*C_UNIT 1 PF
*R_UNIT 1 OHM
*L_UNIT 1 HENRY

// MMMC spef file for corner 'my_rc'

*NAME_MAP

*1 FE_OFN17_w_5
*2 FE_OFN16_w_3
*3 FE_OFN15_n161
*4 FE_OFN14_n175
*5 FE_OFN13_n187
*6 FE_OFN12_n173
*7 FE_OFN11_n165
*8 FE_OFN10_n185
*9 FE_OFN9_n171
*10 FE_OFN8_n183
*11 FE_OFN7_n169
*12 FE_OFN6_n167
*13 FE_OFN5_n181
*14 FE_OFN3_n181
*15 FE_OFN2_n163
*16 FE_OFN1_n179
*17 FE_OFN0_n177
*18 FE_DBTN16_VIN
*19 FE_DBTN15_n161
*20 FE_DBTN14_n163
*21 FE_DBTN13_n165
*22 FE_DBTN12_n167
*23 FE_DBTN11_n169
*24 FE_DBTN10_n171
*25 FE_DBTN9_n173
*26 FE_DBTN8_n175
*27 FE_DBTN7_n177
*28 FE_DBTN6_n179
*29 FE_DBTN5_n181
*30 FE_DBTN4_n183
*31 FE_DBTN3_n185
*32 FE_DBTN2_n187
*33 FE_DBTN1_reg1_0
*34 FE_DBTN0_reg2_0
*35 DIN[13]
*36 DIN[12]
*37 DIN[11]
*38 DIN[10]
*39 DIN[9]
*40 DIN[8]
*41 DIN[7]
*42 DIN[6]
*43 DIN[5]
*44 DIN[4]
*45 DIN[3]
*46 DIN[2]
*47 DIN[1]
*48 DIN[0]
*49 B0[13]
*50 B0[12]
*51 B0[11]
*52 B0[10]
*53 B0[9]
*54 B0[8]
*55 B0[7]
*56 B0[6]
*57 B0[5]
*58 B0[4]
*59 B0[3]
*60 B0[2]
*61 B0[1]
*62 B0[0]
*63 B1[13]
*64 B1[12]
*65 B1[11]
*66 B1[10]
*67 B1[9]
*68 B1[8]
*69 B1[7]
*70 B1[6]
*71 B1[5]
*72 B1[4]
*73 B1[3]
*74 B1[2]
*75 B1[1]
*76 B1[0]
*77 B2[13]
*78 B2[12]
*79 B2[11]
*80 B2[10]
*81 B2[9]
*82 B2[8]
*83 B2[7]
*84 B2[6]
*85 B2[5]
*86 B2[4]
*87 B2[3]
*88 B2[2]
*89 B2[1]
*90 B2[0]
*91 A1[13]
*92 A1[12]
*93 A1[11]
*94 A1[10]
*95 A1[9]
*96 A1[8]
*97 A1[7]
*98 A1[6]
*99 A1[5]
*100 A1[4]
*101 A1[3]
*102 A1[2]
*103 A1[1]
*104 A1[0]
*105 A2[13]
*106 A2[12]
*107 A2[11]
*108 A2[10]
*109 A2[9]
*110 A2[8]
*111 A2[7]
*112 A2[6]
*113 A2[5]
*114 A2[4]
*115 A2[3]
*116 A2[2]
*117 A2[1]
*118 A2[0]
*119 DOUT[13]
*120 DOUT[12]
*121 DOUT[11]
*122 DOUT[10]
*123 DOUT[9]
*124 DOUT[8]
*125 DOUT[7]
*126 DOUT[6]
*127 DOUT[5]
*128 DOUT[4]
*129 DOUT[3]
*130 DOUT[2]
*131 DOUT[1]
*132 DOUT[0]
*133 CLK
*134 RST_n
*135 VIN
*136 VOUT
*137 n2
*138 n3
*139 n6
*140 n7
*141 n10
*142 n11
*143 n14
*144 n15
*145 n18
*146 n19
*147 n22
*148 n23
*149 n26
*150 n27
*151 n30
*152 n31
*153 n32
*154 n33
*155 n34
*156 n35
*157 n36
*158 n37
*159 n38
*160 n39
*161 n40
*162 n41
*163 n42
*164 n43
*165 n44
*166 n45
*167 n46
*168 n47
*169 n48
*170 n49
*171 n50
*172 n51
*173 n52
*174 n53
*175 n54
*176 n55
*177 n56
*178 n57
*179 n58
*180 n101
*181 n102
*182 n103
*183 n104
*184 n105
*185 n106
*186 n107
*187 n108
*188 n109
*189 n110
*190 n111
*191 n112
*192 n113
*193 n114
*194 n115
*195 n116
*196 n117
*197 n118
*198 n119
*199 n120
*200 n121
*201 n122
*202 n123
*203 n124
*204 n125
*205 n126
*206 n127
*207 n128
*208 n129
*209 n130
*210 n131
*211 n132
*212 n133
*213 n134
*214 n135
*215 n136
*216 n137
*217 n138
*218 n139
*219 n140
*220 n141
*221 n142
*222 n143
*223 temp5_26_
*224 temp5_25_
*225 temp5_24_
*226 temp5_23_
*227 temp5_22_
*228 temp5_21_
*229 temp5_20_
*230 temp5_19_
*231 temp5_18_
*232 temp5_17_
*233 temp5_16_
*234 temp5_15_
*235 temp5_14_
*236 temp5_13_
*237 temp4_26_
*238 temp4_25_
*239 temp4_24_
*240 temp4_23_
*241 temp4_22_
*242 temp4_21_
*243 temp4_20_
*244 temp4_19_
*245 temp4_18_
*246 temp4_17_
*247 temp4_16_
*248 temp4_15_
*249 temp4_14_
*250 temp4_13_
*251 temp3_26_
*252 temp3_25_
*253 temp3_24_
*254 temp3_23_
*255 temp3_22_
*256 temp3_21_
*257 temp3_20_
*258 temp3_19_
*259 temp3_18_
*260 temp3_17_
*261 temp3_16_
*262 temp3_15_
*263 temp3_14_
*264 temp3_13_
*265 ff_9_
*266 ff_8_
*267 ff_7_
*268 ff_6_
*269 ff_5_
*270 ff_4_
*271 ff_3_
*272 ff_2_
*273 ff_1_
*274 ff_13_
*275 ff_12_
*276 ff_11_
*277 ff_10_
*278 ff_0_
*279 temp2_26_
*280 temp2_25_
*281 temp2_24_
*282 temp2_23_
*283 temp2_22_
*284 temp2_21_
*285 temp2_20_
*286 temp2_19_
*287 temp2_18_
*288 temp2_17_
*289 temp2_16_
*290 temp2_15_
*291 temp2_14_
*292 temp2_13_
*293 temp1_26_
*294 temp1_25_
*295 temp1_24_
*296 temp1_23_
*297 temp1_22_
*298 temp1_21_
*299 temp1_20_
*300 temp1_19_
*301 temp1_18_
*302 temp1_17_
*303 temp1_16_
*304 temp1_15_
*305 temp1_14_
*306 temp1_13_
*307 fb_9_
*308 fb_8_
*309 fb_7_
*310 fb_6_
*311 fb_5_
*312 fb_4_
*313 fb_3_
*314 fb_2_
*315 fb_1_
*316 fb_13_
*317 fb_12_
*318 fb_11_
*319 fb_10_
*320 fb_0_
*321 N9
*322 N8
*323 N7
*324 N6
*325 N5
*326 N4
*327 N3
*328 N2
*329 N13
*330 N12
*331 N11
*332 N10
*333 N1
*334 N0
*335 n161
*336 n162
*337 n163
*338 n164
*339 n165
*340 n166
*341 n167
*342 n168
*343 n169
*344 n170
*345 n171
*346 n172
*347 n173
*348 n174
*349 n175
*350 n176
*351 n177
*352 n178
*353 n179
*354 n180
*355 n181
*356 n182
*357 n183
*358 n184
*359 n185
*360 n186
*361 n187
*362 n188
*363 mult_50_n806
*364 mult_50_n805
*365 mult_50_n804
*366 mult_50_n803
*367 mult_50_n802
*368 mult_50_n801
*369 mult_50_n800
*370 mult_50_n799
*371 mult_50_n798
*372 mult_50_n797
*373 mult_50_n796
*374 mult_50_n795
*375 mult_50_n794
*376 mult_50_n793
*377 mult_50_n792
*378 mult_50_n791
*379 mult_50_n790
*380 mult_50_n789
*381 mult_50_n788
*382 mult_50_n787
*383 mult_50_n786
*384 mult_50_n785
*385 mult_50_n784
*386 mult_50_n783
*387 mult_50_n782
*388 mult_50_n781
*389 mult_50_n780
*390 mult_50_n779
*391 mult_50_n778
*392 mult_50_n777
*393 mult_50_n776
*394 mult_50_n775
*395 mult_50_n774
*396 mult_50_n773
*397 mult_50_n772
*398 mult_50_n771
*399 mult_50_n770
*400 mult_50_n769
*401 mult_50_n768
*402 mult_50_n767
*403 mult_50_n766
*404 mult_50_n765
*405 mult_50_n764
*406 mult_50_n763
*407 mult_50_n762
*408 mult_50_n761
*409 mult_50_n760
*410 mult_50_n759
*411 mult_50_n758
*412 mult_50_n757
*413 mult_50_n756
*414 mult_50_n755
*415 mult_50_n754
*416 mult_50_n753
*417 mult_50_n752
*418 mult_50_n751
*419 mult_50_n750
*420 mult_50_n749
*421 mult_50_n748
*422 mult_50_n747
*423 mult_50_n746
*424 mult_50_n745
*425 mult_50_n744
*426 mult_50_n743
*427 mult_50_n742
*428 mult_50_n741
*429 mult_50_n740
*430 mult_50_n739
*431 mult_50_n738
*432 mult_50_n737
*433 mult_50_n736
*434 mult_50_n735
*435 mult_50_n734
*436 mult_50_n733
*437 mult_50_n732
*438 mult_50_n731
*439 mult_50_n730
*440 mult_50_n729
*441 mult_50_n728
*442 mult_50_n727
*443 mult_50_n726
*444 mult_50_n725
*445 mult_50_n724
*446 mult_50_n723
*447 mult_50_n722
*448 mult_50_n721
*449 mult_50_n720
*450 mult_50_n719
*451 mult_50_n718
*452 mult_50_n717
*453 mult_50_n716
*454 mult_50_n715
*455 mult_50_n714
*456 mult_50_n713
*457 mult_50_n712
*458 mult_50_n711
*459 mult_50_n710
*460 mult_50_n709
*461 mult_50_n708
*462 mult_50_n707
*463 mult_50_n706
*464 mult_50_n705
*465 mult_50_n704
*466 mult_50_n703
*467 mult_50_n702
*468 mult_50_n701
*469 mult_50_n700
*470 mult_50_n699
*471 mult_50_n698
*472 mult_50_n697
*473 mult_50_n696
*474 mult_50_n695
*475 mult_50_n694
*476 mult_50_n693
*477 mult_50_n692
*478 mult_50_n691
*479 mult_50_n690
*480 mult_50_n689
*481 mult_50_n688
*482 mult_50_n687
*483 mult_50_n686
*484 mult_50_n685
*485 mult_50_n684
*486 mult_50_n683
*487 mult_50_n682
*488 mult_50_n681
*489 mult_50_n680
*490 mult_50_n679
*491 mult_50_n678
*492 mult_50_n677
*493 mult_50_n676
*494 mult_50_n675
*495 mult_50_n674
*496 mult_50_n673
*497 mult_50_n672
*498 mult_50_n671
*499 mult_50_n670
*500 mult_50_n669
*501 mult_50_n668
*502 mult_50_n667
*503 mult_50_n666
*504 mult_50_n665
*505 mult_50_n664
*506 mult_50_n663
*507 mult_50_n662
*508 mult_50_n661
*509 mult_50_n660
*510 mult_50_n659
*511 mult_50_n658
*512 mult_50_n657
*513 mult_50_n656
*514 mult_50_n655
*515 mult_50_n654
*516 mult_50_n653
*517 mult_50_n652
*518 mult_50_n650
*519 mult_50_n649
*520 mult_50_n648
*521 mult_50_n647
*522 mult_50_n646
*523 mult_50_n645
*524 mult_50_n644
*525 mult_50_n643
*526 mult_50_n419
*527 mult_50_n418
*528 mult_50_n417
*529 mult_50_n416
*530 mult_50_n415
*531 mult_50_n414
*532 mult_50_n413
*533 mult_50_n412
*534 mult_50_n411
*535 mult_50_n410
*536 mult_50_n409
*537 mult_50_n408
*538 mult_50_n406
*539 mult_50_n405
*540 mult_50_n404
*541 mult_50_n403
*542 mult_50_n402
*543 mult_50_n401
*544 mult_50_n400
*545 mult_50_n399
*546 mult_50_n398
*547 mult_50_n397
*548 mult_50_n396
*549 mult_50_n395
*550 mult_50_n394
*551 mult_50_n393
*552 mult_50_n392
*553 mult_50_n391
*554 mult_50_n390
*555 mult_50_n389
*556 mult_50_n388
*557 mult_50_n387
*558 mult_50_n386
*559 mult_50_n385
*560 mult_50_n384
*561 mult_50_n382
*562 mult_50_n381
*563 mult_50_n380
*564 mult_50_n379
*565 mult_50_n378
*566 mult_50_n377
*567 mult_50_n376
*568 mult_50_n375
*569 mult_50_n374
*570 mult_50_n373
*571 mult_50_n372
*572 mult_50_n371
*573 mult_50_n370
*574 mult_50_n369
*575 mult_50_n368
*576 mult_50_n367
*577 mult_50_n366
*578 mult_50_n365
*579 mult_50_n364
*580 mult_50_n363
*581 mult_50_n362
*582 mult_50_n361
*583 mult_50_n360
*584 mult_50_n359
*585 mult_50_n358
*586 mult_50_n357
*587 mult_50_n356
*588 mult_50_n355
*589 mult_50_n354
*590 mult_50_n353
*591 mult_50_n352
*592 mult_50_n351
*593 mult_50_n350
*594 mult_50_n349
*595 mult_50_n348
*596 mult_50_n346
*597 mult_50_n345
*598 mult_50_n344
*599 mult_50_n343
*600 mult_50_n342
*601 mult_50_n341
*602 mult_50_n340
*603 mult_50_n339
*604 mult_50_n338
*605 mult_50_n337
*606 mult_50_n336
*607 mult_50_n335
*608 mult_50_n334
*609 mult_50_n333
*610 mult_50_n332
*611 mult_50_n331
*612 mult_50_n330
*613 mult_50_n329
*614 mult_50_n328
*615 mult_50_n327
*616 mult_50_n326
*617 mult_50_n325
*618 mult_50_n321
*619 mult_50_n320
*620 mult_50_n319
*621 mult_50_n318
*622 mult_50_n317
*623 mult_50_n316
*624 mult_50_n315
*625 mult_50_n314
*626 mult_50_n313
*627 mult_50_n312
*628 mult_50_n311
*629 mult_50_n310
*630 mult_50_n309
*631 mult_50_n308
*632 mult_50_n307
*633 mult_50_n306
*634 mult_50_n305
*635 mult_50_n304
*636 mult_50_n303
*637 mult_50_n302
*638 mult_50_n301
*639 mult_50_n300
*640 mult_50_n299
*641 mult_50_n298
*642 mult_50_n297
*643 mult_50_n296
*644 mult_50_n295
*645 mult_50_n294
*646 mult_50_n293
*647 mult_50_n292
*648 mult_50_n291
*649 mult_50_n290
*650 mult_50_n289
*651 mult_50_n288
*652 mult_50_n287
*653 mult_50_n286
*654 mult_50_n285
*655 mult_50_n284
*656 mult_50_n283
*657 mult_50_n282
*658 mult_50_n281
*659 mult_50_n280
*660 mult_50_n279
*661 mult_50_n278
*662 mult_50_n277
*663 mult_50_n276
*664 mult_50_n275
*665 mult_50_n274
*666 mult_50_n273
*667 mult_50_n272
*668 mult_50_n271
*669 mult_50_n270
*670 mult_50_n269
*671 mult_50_n268
*672 mult_50_n267
*673 mult_50_n266
*674 mult_50_n265
*675 mult_50_n264
*676 mult_50_n263
*677 mult_50_n262
*678 mult_50_n261
*679 mult_50_n260
*680 mult_50_n259
*681 mult_50_n258
*682 mult_50_n257
*683 mult_50_n256
*684 mult_50_n255
*685 mult_50_n254
*686 mult_50_n253
*687 mult_50_n252
*688 mult_50_n251
*689 mult_50_n250
*690 mult_50_n249
*691 mult_50_n248
*692 mult_50_n247
*693 mult_50_n246
*694 mult_50_n245
*695 mult_50_n244
*696 mult_50_n243
*697 mult_50_n242
*698 mult_50_n241
*699 mult_50_n240
*700 mult_50_n239
*701 mult_50_n238
*702 mult_50_n237
*703 mult_50_n236
*704 mult_50_n235
*705 mult_50_n234
*706 mult_50_n233
*707 mult_50_n232
*708 mult_50_n231
*709 mult_50_n230
*710 mult_50_n229
*711 mult_50_n228
*712 mult_50_n227
*713 mult_50_n226
*714 mult_50_n225
*715 mult_50_n224
*716 mult_50_n223
*717 mult_50_n222
*718 mult_50_n221
*719 mult_50_n220
*720 mult_50_n219
*721 mult_50_n218
*722 mult_50_n217
*723 mult_50_n216
*724 mult_50_n215
*725 mult_50_n214
*726 mult_50_n213
*727 mult_50_n212
*728 mult_50_n211
*729 mult_50_n210
*730 mult_50_n209
*731 mult_50_n208
*732 mult_50_n207
*733 mult_50_n206
*734 mult_50_n205
*735 mult_50_n204
*736 mult_50_n203
*737 mult_50_n202
*738 mult_50_n201
*739 mult_50_n200
*740 mult_50_n199
*741 mult_50_n198
*742 mult_50_n197
*743 mult_50_n196
*744 mult_50_n195
*745 mult_50_n194
*746 mult_50_n193
*747 mult_50_n192
*748 mult_50_n191
*749 mult_50_n190
*750 mult_50_n189
*751 mult_50_n188
*752 mult_50_n187
*753 mult_50_n186
*754 mult_50_n185
*755 mult_50_n184
*756 mult_50_n183
*757 mult_50_n182
*758 mult_50_n181
*759 mult_50_n180
*760 mult_50_n179
*761 mult_50_n178
*762 mult_50_n177
*763 mult_50_n176
*764 mult_50_n175
*765 mult_50_n174
*766 mult_50_n173
*767 mult_50_n172
*768 mult_50_n171
*769 mult_50_n170
*770 mult_50_n169
*771 mult_50_n168
*772 mult_50_n167
*773 mult_50_n166
*774 mult_50_n165
*775 mult_50_n164
*776 mult_50_n163
*777 mult_50_n162
*778 mult_50_n149
*779 mult_50_n148
*780 mult_50_n147
*781 mult_50_n146
*782 mult_50_n145
*783 mult_50_n144
*784 mult_50_n143
*785 mult_50_n142
*786 mult_50_n141
*787 mult_50_n140
*788 mult_50_n139
*789 mult_50_n138
*790 mult_50_n137
*791 mult_50_n136
*792 mult_52_n806
*793 mult_52_n805
*794 mult_52_n804
*795 mult_52_n803
*796 mult_52_n802
*797 mult_52_n801
*798 mult_52_n800
*799 mult_52_n799
*800 mult_52_n798
*801 mult_52_n797
*802 mult_52_n796
*803 mult_52_n795
*804 mult_52_n794
*805 mult_52_n793
*806 mult_52_n792
*807 mult_52_n791
*808 mult_52_n790
*809 mult_52_n789
*810 mult_52_n788
*811 mult_52_n787
*812 mult_52_n786
*813 mult_52_n785
*814 mult_52_n784
*815 mult_52_n783
*816 mult_52_n782
*817 mult_52_n781
*818 mult_52_n780
*819 mult_52_n779
*820 mult_52_n778
*821 mult_52_n777
*822 mult_52_n776
*823 mult_52_n775
*824 mult_52_n774
*825 mult_52_n773
*826 mult_52_n772
*827 mult_52_n771
*828 mult_52_n770
*829 mult_52_n769
*830 mult_52_n768
*831 mult_52_n767
*832 mult_52_n766
*833 mult_52_n765
*834 mult_52_n764
*835 mult_52_n763
*836 mult_52_n762
*837 mult_52_n761
*838 mult_52_n760
*839 mult_52_n759
*840 mult_52_n758
*841 mult_52_n757
*842 mult_52_n756
*843 mult_52_n755
*844 mult_52_n754
*845 mult_52_n753
*846 mult_52_n752
*847 mult_52_n751
*848 mult_52_n750
*849 mult_52_n749
*850 mult_52_n748
*851 mult_52_n747
*852 mult_52_n746
*853 mult_52_n745
*854 mult_52_n744
*855 mult_52_n743
*856 mult_52_n742
*857 mult_52_n741
*858 mult_52_n740
*859 mult_52_n739
*860 mult_52_n738
*861 mult_52_n737
*862 mult_52_n736
*863 mult_52_n735
*864 mult_52_n734
*865 mult_52_n733
*866 mult_52_n732
*867 mult_52_n731
*868 mult_52_n730
*869 mult_52_n729
*870 mult_52_n728
*871 mult_52_n727
*872 mult_52_n726
*873 mult_52_n725
*874 mult_52_n724
*875 mult_52_n723
*876 mult_52_n722
*877 mult_52_n721
*878 mult_52_n720
*879 mult_52_n719
*880 mult_52_n718
*881 mult_52_n717
*882 mult_52_n716
*883 mult_52_n715
*884 mult_52_n714
*885 mult_52_n713
*886 mult_52_n712
*887 mult_52_n711
*888 mult_52_n710
*889 mult_52_n709
*890 mult_52_n708
*891 mult_52_n707
*892 mult_52_n706
*893 mult_52_n705
*894 mult_52_n704
*895 mult_52_n703
*896 mult_52_n702
*897 mult_52_n701
*898 mult_52_n700
*899 mult_52_n699
*900 mult_52_n698
*901 mult_52_n697
*902 mult_52_n696
*903 mult_52_n695
*904 mult_52_n694
*905 mult_52_n693
*906 mult_52_n692
*907 mult_52_n691
*908 mult_52_n690
*909 mult_52_n689
*910 mult_52_n688
*911 mult_52_n687
*912 mult_52_n686
*913 mult_52_n685
*914 mult_52_n684
*915 mult_52_n683
*916 mult_52_n682
*917 mult_52_n681
*918 mult_52_n680
*919 mult_52_n679
*920 mult_52_n678
*921 mult_52_n677
*922 mult_52_n676
*923 mult_52_n675
*924 mult_52_n674
*925 mult_52_n673
*926 mult_52_n672
*927 mult_52_n671
*928 mult_52_n670
*929 mult_52_n669
*930 mult_52_n668
*931 mult_52_n667
*932 mult_52_n666
*933 mult_52_n665
*934 mult_52_n664
*935 mult_52_n663
*936 mult_52_n662
*937 mult_52_n661
*938 mult_52_n660
*939 mult_52_n659
*940 mult_52_n658
*941 mult_52_n657
*942 mult_52_n656
*943 mult_52_n655
*944 mult_52_n654
*945 mult_52_n653
*946 mult_52_n652
*947 mult_52_n650
*948 mult_52_n649
*949 mult_52_n648
*950 mult_52_n647
*951 mult_52_n646
*952 mult_52_n645
*953 mult_52_n644
*954 mult_52_n643
*955 mult_52_n419
*956 mult_52_n418
*957 mult_52_n417
*958 mult_52_n416
*959 mult_52_n415
*960 mult_52_n414
*961 mult_52_n413
*962 mult_52_n412
*963 mult_52_n411
*964 mult_52_n410
*965 mult_52_n409
*966 mult_52_n408
*967 mult_52_n406
*968 mult_52_n405
*969 mult_52_n404
*970 mult_52_n403
*971 mult_52_n402
*972 mult_52_n401
*973 mult_52_n400
*974 mult_52_n399
*975 mult_52_n398
*976 mult_52_n397
*977 mult_52_n396
*978 mult_52_n395
*979 mult_52_n394
*980 mult_52_n393
*981 mult_52_n392
*982 mult_52_n391
*983 mult_52_n390
*984 mult_52_n389
*985 mult_52_n388
*986 mult_52_n387
*987 mult_52_n386
*988 mult_52_n385
*989 mult_52_n384
*990 mult_52_n382
*991 mult_52_n381
*992 mult_52_n380
*993 mult_52_n379
*994 mult_52_n378
*995 mult_52_n377
*996 mult_52_n376
*997 mult_52_n375
*998 mult_52_n374
*999 mult_52_n373
*1000 mult_52_n372
*1001 mult_52_n371
*1002 mult_52_n370
*1003 mult_52_n369
*1004 mult_52_n368
*1005 mult_52_n367
*1006 mult_52_n366
*1007 mult_52_n365
*1008 mult_52_n364
*1009 mult_52_n363
*1010 mult_52_n362
*1011 mult_52_n361
*1012 mult_52_n360
*1013 mult_52_n359
*1014 mult_52_n358
*1015 mult_52_n357
*1016 mult_52_n356
*1017 mult_52_n355
*1018 mult_52_n354
*1019 mult_52_n353
*1020 mult_52_n352
*1021 mult_52_n351
*1022 mult_52_n350
*1023 mult_52_n349
*1024 mult_52_n348
*1025 mult_52_n346
*1026 mult_52_n345
*1027 mult_52_n344
*1028 mult_52_n343
*1029 mult_52_n342
*1030 mult_52_n341
*1031 mult_52_n340
*1032 mult_52_n339
*1033 mult_52_n338
*1034 mult_52_n337
*1035 mult_52_n336
*1036 mult_52_n335
*1037 mult_52_n334
*1038 mult_52_n333
*1039 mult_52_n332
*1040 mult_52_n331
*1041 mult_52_n330
*1042 mult_52_n329
*1043 mult_52_n328
*1044 mult_52_n327
*1045 mult_52_n326
*1046 mult_52_n325
*1047 mult_52_n321
*1048 mult_52_n320
*1049 mult_52_n319
*1050 mult_52_n318
*1051 mult_52_n317
*1052 mult_52_n316
*1053 mult_52_n315
*1054 mult_52_n314
*1055 mult_52_n313
*1056 mult_52_n312
*1057 mult_52_n311
*1058 mult_52_n310
*1059 mult_52_n309
*1060 mult_52_n308
*1061 mult_52_n307
*1062 mult_52_n306
*1063 mult_52_n305
*1064 mult_52_n304
*1065 mult_52_n303
*1066 mult_52_n302
*1067 mult_52_n301
*1068 mult_52_n300
*1069 mult_52_n299
*1070 mult_52_n298
*1071 mult_52_n297
*1072 mult_52_n296
*1073 mult_52_n295
*1074 mult_52_n294
*1075 mult_52_n293
*1076 mult_52_n292
*1077 mult_52_n291
*1078 mult_52_n290
*1079 mult_52_n289
*1080 mult_52_n288
*1081 mult_52_n287
*1082 mult_52_n286
*1083 mult_52_n285
*1084 mult_52_n284
*1085 mult_52_n283
*1086 mult_52_n282
*1087 mult_52_n281
*1088 mult_52_n280
*1089 mult_52_n279
*1090 mult_52_n278
*1091 mult_52_n277
*1092 mult_52_n276
*1093 mult_52_n275
*1094 mult_52_n274
*1095 mult_52_n273
*1096 mult_52_n272
*1097 mult_52_n271
*1098 mult_52_n270
*1099 mult_52_n269
*1100 mult_52_n268
*1101 mult_52_n267
*1102 mult_52_n266
*1103 mult_52_n265
*1104 mult_52_n264
*1105 mult_52_n263
*1106 mult_52_n262
*1107 mult_52_n261
*1108 mult_52_n260
*1109 mult_52_n259
*1110 mult_52_n258
*1111 mult_52_n257
*1112 mult_52_n256
*1113 mult_52_n255
*1114 mult_52_n254
*1115 mult_52_n253
*1116 mult_52_n252
*1117 mult_52_n251
*1118 mult_52_n250
*1119 mult_52_n249
*1120 mult_52_n248
*1121 mult_52_n247
*1122 mult_52_n246
*1123 mult_52_n245
*1124 mult_52_n244
*1125 mult_52_n243
*1126 mult_52_n242
*1127 mult_52_n241
*1128 mult_52_n240
*1129 mult_52_n239
*1130 mult_52_n238
*1131 mult_52_n237
*1132 mult_52_n236
*1133 mult_52_n235
*1134 mult_52_n234
*1135 mult_52_n233
*1136 mult_52_n232
*1137 mult_52_n231
*1138 mult_52_n230
*1139 mult_52_n229
*1140 mult_52_n228
*1141 mult_52_n227
*1142 mult_52_n226
*1143 mult_52_n225
*1144 mult_52_n224
*1145 mult_52_n223
*1146 mult_52_n222
*1147 mult_52_n221
*1148 mult_52_n220
*1149 mult_52_n219
*1150 mult_52_n218
*1151 mult_52_n217
*1152 mult_52_n216
*1153 mult_52_n215
*1154 mult_52_n214
*1155 mult_52_n213
*1156 mult_52_n212
*1157 mult_52_n211
*1158 mult_52_n210
*1159 mult_52_n209
*1160 mult_52_n208
*1161 mult_52_n207
*1162 mult_52_n206
*1163 mult_52_n205
*1164 mult_52_n204
*1165 mult_52_n203
*1166 mult_52_n202
*1167 mult_52_n201
*1168 mult_52_n200
*1169 mult_52_n199
*1170 mult_52_n198
*1171 mult_52_n197
*1172 mult_52_n196
*1173 mult_52_n195
*1174 mult_52_n194
*1175 mult_52_n193
*1176 mult_52_n192
*1177 mult_52_n191
*1178 mult_52_n190
*1179 mult_52_n189
*1180 mult_52_n188
*1181 mult_52_n187
*1182 mult_52_n186
*1183 mult_52_n185
*1184 mult_52_n184
*1185 mult_52_n183
*1186 mult_52_n182
*1187 mult_52_n181
*1188 mult_52_n180
*1189 mult_52_n179
*1190 mult_52_n178
*1191 mult_52_n177
*1192 mult_52_n176
*1193 mult_52_n175
*1194 mult_52_n174
*1195 mult_52_n173
*1196 mult_52_n172
*1197 mult_52_n171
*1198 mult_52_n170
*1199 mult_52_n169
*1200 mult_52_n168
*1201 mult_52_n167
*1202 mult_52_n166
*1203 mult_52_n165
*1204 mult_52_n164
*1205 mult_52_n163
*1206 mult_52_n162
*1207 mult_52_n149
*1208 mult_52_n148
*1209 mult_52_n147
*1210 mult_52_n146
*1211 mult_52_n145
*1212 mult_52_n144
*1213 mult_52_n143
*1214 mult_52_n142
*1215 mult_52_n141
*1216 mult_52_n140
*1217 mult_52_n139
*1218 mult_52_n138
*1219 mult_52_n137
*1220 mult_52_n136
*1221 add_1_root_add_0_root_add_59_carry_1_
*1222 add_1_root_add_0_root_add_59_carry_2_
*1223 add_1_root_add_0_root_add_59_carry_3_
*1224 add_1_root_add_0_root_add_59_carry_4_
*1225 add_1_root_add_0_root_add_59_carry_5_
*1226 add_1_root_add_0_root_add_59_carry_6_
*1227 add_1_root_add_0_root_add_59_carry_7_
*1228 add_1_root_add_0_root_add_59_carry_8_
*1229 add_1_root_add_0_root_add_59_carry_9_
*1230 add_1_root_add_0_root_add_59_carry_10_
*1231 add_1_root_add_0_root_add_59_carry_11_
*1232 add_1_root_add_0_root_add_59_carry_12_
*1233 add_1_root_add_0_root_add_59_carry_13_
*1234 mult_54_n816
*1235 mult_54_n815
*1236 mult_54_n814
*1237 mult_54_n813
*1238 mult_54_n812
*1239 mult_54_n811
*1240 mult_54_n810
*1241 mult_54_n809
*1242 mult_54_n808
*1243 mult_54_n807
*1244 mult_54_n806
*1245 mult_54_n805
*1246 mult_54_n804
*1247 mult_54_n803
*1248 mult_54_n802
*1249 mult_54_n801
*1250 mult_54_n800
*1251 mult_54_n799
*1252 mult_54_n798
*1253 mult_54_n797
*1254 mult_54_n796
*1255 mult_54_n795
*1256 mult_54_n794
*1257 mult_54_n793
*1258 mult_54_n792
*1259 mult_54_n791
*1260 mult_54_n790
*1261 mult_54_n789
*1262 mult_54_n788
*1263 mult_54_n787
*1264 mult_54_n786
*1265 mult_54_n785
*1266 mult_54_n784
*1267 mult_54_n783
*1268 mult_54_n782
*1269 mult_54_n781
*1270 mult_54_n780
*1271 mult_54_n779
*1272 mult_54_n778
*1273 mult_54_n777
*1274 mult_54_n776
*1275 mult_54_n775
*1276 mult_54_n774
*1277 mult_54_n773
*1278 mult_54_n772
*1279 mult_54_n771
*1280 mult_54_n770
*1281 mult_54_n769
*1282 mult_54_n768
*1283 mult_54_n767
*1284 mult_54_n766
*1285 mult_54_n765
*1286 mult_54_n764
*1287 mult_54_n763
*1288 mult_54_n762
*1289 mult_54_n761
*1290 mult_54_n760
*1291 mult_54_n759
*1292 mult_54_n758
*1293 mult_54_n757
*1294 mult_54_n756
*1295 mult_54_n755
*1296 mult_54_n754
*1297 mult_54_n753
*1298 mult_54_n752
*1299 mult_54_n751
*1300 mult_54_n750
*1301 mult_54_n749
*1302 mult_54_n748
*1303 mult_54_n747
*1304 mult_54_n746
*1305 mult_54_n745
*1306 mult_54_n744
*1307 mult_54_n743
*1308 mult_54_n742
*1309 mult_54_n741
*1310 mult_54_n740
*1311 mult_54_n739
*1312 mult_54_n738
*1313 mult_54_n737
*1314 mult_54_n736
*1315 mult_54_n735
*1316 mult_54_n734
*1317 mult_54_n733
*1318 mult_54_n732
*1319 mult_54_n731
*1320 mult_54_n730
*1321 mult_54_n729
*1322 mult_54_n728
*1323 mult_54_n727
*1324 mult_54_n726
*1325 mult_54_n725
*1326 mult_54_n724
*1327 mult_54_n723
*1328 mult_54_n722
*1329 mult_54_n721
*1330 mult_54_n720
*1331 mult_54_n719
*1332 mult_54_n718
*1333 mult_54_n717
*1334 mult_54_n716
*1335 mult_54_n715
*1336 mult_54_n714
*1337 mult_54_n713
*1338 mult_54_n712
*1339 mult_54_n711
*1340 mult_54_n710
*1341 mult_54_n709
*1342 mult_54_n708
*1343 mult_54_n707
*1344 mult_54_n706
*1345 mult_54_n705
*1346 mult_54_n704
*1347 mult_54_n703
*1348 mult_54_n702
*1349 mult_54_n701
*1350 mult_54_n700
*1351 mult_54_n699
*1352 mult_54_n698
*1353 mult_54_n697
*1354 mult_54_n696
*1355 mult_54_n695
*1356 mult_54_n694
*1357 mult_54_n693
*1358 mult_54_n692
*1359 mult_54_n691
*1360 mult_54_n690
*1361 mult_54_n689
*1362 mult_54_n688
*1363 mult_54_n687
*1364 mult_54_n686
*1365 mult_54_n685
*1366 mult_54_n684
*1367 mult_54_n683
*1368 mult_54_n682
*1369 mult_54_n681
*1370 mult_54_n680
*1371 mult_54_n679
*1372 mult_54_n678
*1373 mult_54_n677
*1374 mult_54_n676
*1375 mult_54_n675
*1376 mult_54_n674
*1377 mult_54_n673
*1378 mult_54_n672
*1379 mult_54_n671
*1380 mult_54_n670
*1381 mult_54_n669
*1382 mult_54_n668
*1383 mult_54_n667
*1384 mult_54_n666
*1385 mult_54_n665
*1386 mult_54_n664
*1387 mult_54_n663
*1388 mult_54_n662
*1389 mult_54_n661
*1390 mult_54_n660
*1391 mult_54_n659
*1392 mult_54_n658
*1393 mult_54_n657
*1394 mult_54_n656
*1395 mult_54_n655
*1396 mult_54_n654
*1397 mult_54_n653
*1398 mult_54_n652
*1399 mult_54_n651
*1400 mult_54_n650
*1401 mult_54_n649
*1402 mult_54_n648
*1403 mult_54_n647
*1404 mult_54_n646
*1405 mult_54_n645
*1406 mult_54_n644
*1407 mult_54_n643
*1408 mult_54_n642
*1409 mult_54_n641
*1410 mult_54_n640
*1411 mult_54_n638
*1412 mult_54_n637
*1413 mult_54_n636
*1414 mult_54_n635
*1415 mult_54_n419
*1416 mult_54_n418
*1417 mult_54_n417
*1418 mult_54_n416
*1419 mult_54_n415
*1420 mult_54_n414
*1421 mult_54_n413
*1422 mult_54_n412
*1423 mult_54_n411
*1424 mult_54_n410
*1425 mult_54_n409
*1426 mult_54_n408
*1427 mult_54_n406
*1428 mult_54_n405
*1429 mult_54_n404
*1430 mult_54_n403
*1431 mult_54_n402
*1432 mult_54_n401
*1433 mult_54_n400
*1434 mult_54_n399
*1435 mult_54_n398
*1436 mult_54_n397
*1437 mult_54_n396
*1438 mult_54_n395
*1439 mult_54_n394
*1440 mult_54_n393
*1441 mult_54_n392
*1442 mult_54_n391
*1443 mult_54_n390
*1444 mult_54_n389
*1445 mult_54_n388
*1446 mult_54_n387
*1447 mult_54_n386
*1448 mult_54_n385
*1449 mult_54_n384
*1450 mult_54_n382
*1451 mult_54_n381
*1452 mult_54_n380
*1453 mult_54_n379
*1454 mult_54_n378
*1455 mult_54_n377
*1456 mult_54_n376
*1457 mult_54_n375
*1458 mult_54_n374
*1459 mult_54_n373
*1460 mult_54_n372
*1461 mult_54_n371
*1462 mult_54_n370
*1463 mult_54_n369
*1464 mult_54_n368
*1465 mult_54_n367
*1466 mult_54_n366
*1467 mult_54_n365
*1468 mult_54_n364
*1469 mult_54_n363
*1470 mult_54_n362
*1471 mult_54_n361
*1472 mult_54_n360
*1473 mult_54_n359
*1474 mult_54_n358
*1475 mult_54_n357
*1476 mult_54_n356
*1477 mult_54_n355
*1478 mult_54_n354
*1479 mult_54_n353
*1480 mult_54_n352
*1481 mult_54_n351
*1482 mult_54_n350
*1483 mult_54_n349
*1484 mult_54_n348
*1485 mult_54_n346
*1486 mult_54_n345
*1487 mult_54_n344
*1488 mult_54_n343
*1489 mult_54_n342
*1490 mult_54_n341
*1491 mult_54_n340
*1492 mult_54_n339
*1493 mult_54_n338
*1494 mult_54_n337
*1495 mult_54_n336
*1496 mult_54_n335
*1497 mult_54_n334
*1498 mult_54_n333
*1499 mult_54_n332
*1500 mult_54_n331
*1501 mult_54_n330
*1502 mult_54_n329
*1503 mult_54_n328
*1504 mult_54_n327
*1505 mult_54_n326
*1506 mult_54_n325
*1507 mult_54_n321
*1508 mult_54_n320
*1509 mult_54_n319
*1510 mult_54_n318
*1511 mult_54_n317
*1512 mult_54_n316
*1513 mult_54_n315
*1514 mult_54_n314
*1515 mult_54_n313
*1516 mult_54_n312
*1517 mult_54_n311
*1518 mult_54_n310
*1519 mult_54_n309
*1520 mult_54_n308
*1521 mult_54_n307
*1522 mult_54_n306
*1523 mult_54_n305
*1524 mult_54_n304
*1525 mult_54_n303
*1526 mult_54_n302
*1527 mult_54_n301
*1528 mult_54_n300
*1529 mult_54_n299
*1530 mult_54_n298
*1531 mult_54_n297
*1532 mult_54_n296
*1533 mult_54_n295
*1534 mult_54_n294
*1535 mult_54_n293
*1536 mult_54_n292
*1537 mult_54_n291
*1538 mult_54_n290
*1539 mult_54_n289
*1540 mult_54_n288
*1541 mult_54_n287
*1542 mult_54_n286
*1543 mult_54_n285
*1544 mult_54_n284
*1545 mult_54_n283
*1546 mult_54_n282
*1547 mult_54_n281
*1548 mult_54_n280
*1549 mult_54_n279
*1550 mult_54_n278
*1551 mult_54_n277
*1552 mult_54_n276
*1553 mult_54_n275
*1554 mult_54_n274
*1555 mult_54_n273
*1556 mult_54_n272
*1557 mult_54_n271
*1558 mult_54_n270
*1559 mult_54_n269
*1560 mult_54_n268
*1561 mult_54_n267
*1562 mult_54_n266
*1563 mult_54_n265
*1564 mult_54_n264
*1565 mult_54_n263
*1566 mult_54_n262
*1567 mult_54_n261
*1568 mult_54_n260
*1569 mult_54_n259
*1570 mult_54_n258
*1571 mult_54_n257
*1572 mult_54_n256
*1573 mult_54_n255
*1574 mult_54_n254
*1575 mult_54_n253
*1576 mult_54_n252
*1577 mult_54_n251
*1578 mult_54_n250
*1579 mult_54_n249
*1580 mult_54_n248
*1581 mult_54_n247
*1582 mult_54_n246
*1583 mult_54_n245
*1584 mult_54_n244
*1585 mult_54_n243
*1586 mult_54_n242
*1587 mult_54_n241
*1588 mult_54_n240
*1589 mult_54_n239
*1590 mult_54_n238
*1591 mult_54_n237
*1592 mult_54_n236
*1593 mult_54_n235
*1594 mult_54_n234
*1595 mult_54_n233
*1596 mult_54_n232
*1597 mult_54_n231
*1598 mult_54_n230
*1599 mult_54_n229
*1600 mult_54_n228
*1601 mult_54_n227
*1602 mult_54_n226
*1603 mult_54_n225
*1604 mult_54_n224
*1605 mult_54_n223
*1606 mult_54_n222
*1607 mult_54_n221
*1608 mult_54_n220
*1609 mult_54_n219
*1610 mult_54_n218
*1611 mult_54_n217
*1612 mult_54_n216
*1613 mult_54_n215
*1614 mult_54_n214
*1615 mult_54_n213
*1616 mult_54_n212
*1617 mult_54_n211
*1618 mult_54_n210
*1619 mult_54_n209
*1620 mult_54_n208
*1621 mult_54_n207
*1622 mult_54_n206
*1623 mult_54_n205
*1624 mult_54_n204
*1625 mult_54_n203
*1626 mult_54_n202
*1627 mult_54_n201
*1628 mult_54_n200
*1629 mult_54_n199
*1630 mult_54_n198
*1631 mult_54_n197
*1632 mult_54_n196
*1633 mult_54_n195
*1634 mult_54_n194
*1635 mult_54_n193
*1636 mult_54_n192
*1637 mult_54_n191
*1638 mult_54_n190
*1639 mult_54_n189
*1640 mult_54_n188
*1641 mult_54_n187
*1642 mult_54_n186
*1643 mult_54_n185
*1644 mult_54_n184
*1645 mult_54_n183
*1646 mult_54_n182
*1647 mult_54_n181
*1648 mult_54_n180
*1649 mult_54_n179
*1650 mult_54_n178
*1651 mult_54_n177
*1652 mult_54_n176
*1653 mult_54_n175
*1654 mult_54_n174
*1655 mult_54_n173
*1656 mult_54_n172
*1657 mult_54_n171
*1658 mult_54_n170
*1659 mult_54_n169
*1660 mult_54_n168
*1661 mult_54_n167
*1662 mult_54_n166
*1663 mult_54_n165
*1664 mult_54_n164
*1665 mult_54_n163
*1666 mult_54_n162
*1667 mult_54_n149
*1668 mult_54_n148
*1669 mult_54_n147
*1670 mult_54_n146
*1671 mult_54_n145
*1672 mult_54_n144
*1673 mult_54_n143
*1674 mult_54_n142
*1675 mult_54_n141
*1676 mult_54_n140
*1677 mult_54_n139
*1678 mult_54_n138
*1679 mult_54_n137
*1680 mult_54_n136
*1681 add_0_root_add_0_root_add_59_carry_1_
*1682 add_0_root_add_0_root_add_59_carry_2_
*1683 add_0_root_add_0_root_add_59_carry_3_
*1684 add_0_root_add_0_root_add_59_carry_4_
*1685 add_0_root_add_0_root_add_59_carry_5_
*1686 add_0_root_add_0_root_add_59_carry_6_
*1687 add_0_root_add_0_root_add_59_carry_7_
*1688 add_0_root_add_0_root_add_59_carry_8_
*1689 add_0_root_add_0_root_add_59_carry_9_
*1690 add_0_root_add_0_root_add_59_carry_10_
*1691 add_0_root_add_0_root_add_59_carry_11_
*1692 add_0_root_add_0_root_add_59_carry_12_
*1693 add_0_root_add_0_root_add_59_carry_13_
*1694 mult_46_n830