*SPEF "IEEE 1481-1998"
*DESIGN "IIR_CA"
*DATE "Mon Nov  1 05:03:38 2021"
*VENDOR "Cadence Design Systems, Inc."
*PROGRAM "Innovus"
*VERSION "17.11-s080_1"
*DESIGN_FLOW "COUPLING C" "PIN_CAP NONE" "NAME_SCOPE LOCAL"
*DIVIDER /
*DELIMITER :
*BUS_DELIMITER []
*T_UNIT 1 NS
*C_UNIT 1 PF
*R_UNIT 1 OHM
*L_UNIT 1 HENRY

// MMMC spef file for corner 'my_rc'

*NAME_MAP

*1 FE_OFN18_w_1
*2 FE_OFN17_w_9
*3 FE_OFN16_w_7
*4 FE_OFN15_w_5
*5 FE_OFN14_w_3
*6 FE_OFN13_n158
*7 FE_OFN12_n172
*8 FE_OFN11_n170
*9 FE_OFN10_n184
*10 FE_OFN9_n168
*11 FE_OFN8_n166
*12 FE_OFN7_n182
*13 FE_OFN6_n180
*14 FE_OFN5_n164
*15 FE_OFN4_n178
*16 FE_OFN3_n176
*17 FE_OFN2_n162
*18 FE_OFN1_n174
*19 FE_OFN0_n160
*20 FE_DBTN16_VIN
*21 FE_DBTN15_n158
*22 FE_DBTN14_n160
*23 FE_DBTN13_n162
*24 FE_DBTN12_n164
*25 FE_DBTN11_n166
*26 FE_DBTN10_n168
*27 FE_DBTN9_n170
*28 FE_DBTN8_n172
*29 FE_DBTN7_n174
*30 FE_DBTN6_n176
*31 FE_DBTN5_n178
*32 FE_DBTN4_n180
*33 FE_DBTN3_n182
*34 FE_DBTN2_n184
*35 FE_DBTN1_reg1_0
*36 FE_DBTN0_reg2_0
*37 DIN[13]
*38 DIN[12]
*39 DIN[11]
*40 DIN[10]
*41 DIN[9]
*42 DIN[8]
*43 DIN[7]
*44 DIN[6]
*45 DIN[5]
*46 DIN[4]
*47 DIN[3]
*48 DIN[2]
*49 DIN[1]
*50 DIN[0]
*51 B0[13]
*52 B0[12]
*53 B0[11]
*54 B0[10]
*55 B0[9]
*56 B0[8]
*57 B0[7]
*58 B0[6]
*59 B0[5]
*60 B0[4]
*61 B0[3]
*62 B0[2]
*63 B0[1]
*64 B0[0]
*65 B1[13]
*66 B1[12]
*67 B1[11]
*68 B1[10]
*69 B1[9]
*70 B1[8]
*71 B1[7]
*72 B1[6]
*73 B1[5]
*74 B1[4]
*75 B1[3]
*76 B1[2]
*77 B1[1]
*78 B1[0]
*79 B2[13]
*80 B2[12]
*81 B2[11]
*82 B2[10]
*83 B2[9]
*84 B2[8]
*85 B2[7]
*86 B2[6]
*87 B2[5]
*88 B2[4]
*89 B2[3]
*90 B2[2]
*91 B2[1]
*92 B2[0]
*93 A1[13]
*94 A1[12]
*95 A1[11]
*96 A1[10]
*97 A1[9]
*98 A1[8]
*99 A1[7]
*100 A1[6]
*101 A1[5]
*102 A1[4]
*103 A1[3]
*104 A1[2]
*105 A1[1]
*106 A1[0]
*107 A2[13]
*108 A2[12]
*109 A2[11]
*110 A2[10]
*111 A2[9]
*112 A2[8]
*113 A2[7]
*114 A2[6]
*115 A2[5]
*116 A2[4]
*117 A2[3]
*118 A2[2]
*119 A2[1]
*120 A2[0]
*121 DOUT[13]
*122 DOUT[12]
*123 DOUT[11]
*124 DOUT[10]
*125 DOUT[9]
*126 DOUT[8]
*127 DOUT[7]
*128 DOUT[6]
*129 DOUT[5]
*130 DOUT[4]
*131 DOUT[3]
*132 DOUT[2]
*133 DOUT[1]
*134 DOUT[0]
*135 CLK
*136 RST_n
*137 VIN
*138 VOUT
*139 n2
*140 n3
*141 n6
*142 n7
*143 n10
*144 n11
*145 n14
*146 n15
*147 n18
*148 n19
*149 n22
*150 n23
*151 n26
*152 n27
*153 n30
*154 n31
*155 n32
*156 n33
*157 n34
*158 n35
*159 n36
*160 n37
*161 n38
*162 n39
*163 n40
*164 n41
*165 n42
*166 n43
*167 n44
*168 n45
*169 n46
*170 n47
*171 n48
*172 n49
*173 n50
*174 n51
*175 n52
*176 n53
*177 n54
*178 n55
*179 n56
*180 n57
*181 n58
*182 n101
*183 n102
*184 n103
*185 n104
*186 n105
*187 n106
*188 n107
*189 n108
*190 n109
*191 n110
*192 n111
*193 n112
*194 n113
*195 n114
*196 n115
*197 n116
*198 n117
*199 n118
*200 n119
*201 n120
*202 n121
*203 n122
*204 n123
*205 n124
*206 n125
*207 n126
*208 n127
*209 n128
*210 n129
*211 n130
*212 n131
*213 n132
*214 n133
*215 n134
*216 n135
*217 n136
*218 n137
*219 n138
*220 n139
*221 n140
*222 n141
*223 n142
*224 n143
*225 temp5_26_
*226 temp5_25_
*227 temp5_24_
*228 temp5_23_
*229 temp5_22_
*230 temp5_21_
*231 temp5_20_
*232 temp5_19_
*233 temp5_18_
*234 temp5_17_
*235 temp5_16_
*236 temp5_15_
*237 temp5_14_
*238 temp5_13_
*239 temp4_26_
*240 temp4_25_
*241 temp4_24_
*242 temp4_23_
*243 temp4_22_
*244 temp4_21_
*245 temp4_20_
*246 temp4_19_
*247 temp4_18_
*248 temp4_17_
*249 temp4_16_
*250 temp4_15_
*251 temp4_14_
*252 temp4_13_
*253 temp3_26_
*254 temp3_25_
*255 temp3_24_
*256 temp3_23_
*257 temp3_22_
*258 temp3_21_
*259 temp3_20_
*260 temp3_19_
*261 temp3_18_
*262 temp3_17_
*263 temp3_16_
*264 temp3_15_
*265 temp3_14_
*266 temp3_13_
*267 ff_9_
*268 ff_8_
*269 ff_7_
*270 ff_6_
*271 ff_5_
*272 ff_4_
*273 ff_3_
*274 ff_2_
*275 ff_1_
*276 ff_13_
*277 ff_12_
*278 ff_11_
*279 ff_10_
*280 ff_0_
*281 temp2_26_
*282 temp2_25_
*283 temp2_24_
*284 temp2_23_
*285 temp2_22_
*286 temp2_21_
*287 temp2_20_
*288 temp2_19_
*289 temp2_18_
*290 temp2_17_
*291 temp2_16_
*292 temp2_15_
*293 temp2_14_
*294 temp2_13_
*295 temp1_26_
*296 temp1_25_
*297 temp1_24_
*298 temp1_23_
*299 temp1_22_
*300 temp1_21_
*301 temp1_20_
*302 temp1_19_
*303 temp1_18_
*304 temp1_17_
*305 temp1_16_
*306 temp1_15_
*307 temp1_14_
*308 temp1_13_
*309 fb_9_
*310 fb_8_
*311 fb_7_
*312 fb_6_
*313 fb_5_
*314 fb_4_
*315 fb_3_
*316 fb_2_
*317 fb_1_
*318 fb_13_
*319 fb_12_
*320 fb_11_
*321 fb_10_
*322 fb_0_
*323 N9
*324 N8
*325 N7
*326 N6
*327 N5
*328 N4
*329 N3
*330 N2
*331 N13
*332 N12
*333 N11
*334 N10
*335 N1
*336 N0
*337 n158
*338 n159
*339 n160
*340 n161
*341 n162
*342 n163
*343 n164
*344 n165
*345 n166
*346 n167
*347 n168
*348 n169
*349 n170
*350 n171
*351 n172
*352 n173
*353 n174
*354 n175
*355 n176
*356 n177
*357 n178
*358 n179
*359 n180
*360 n181
*361 n182
*362 n183
*363 n184
*364 n185
*365 mult_50_n805
*366 mult_50_n804
*367 mult_50_n803
*368 mult_50_n802
*369 mult_50_n801
*370 mult_50_n800
*371 mult_50_n799
*372 mult_50_n798
*373 mult_50_n797
*374 mult_50_n796
*375 mult_50_n795
*376 mult_50_n794
*377 mult_50_n793
*378 mult_50_n792
*379 mult_50_n791
*380 mult_50_n790
*381 mult_50_n789
*382 mult_50_n788
*383 mult_50_n787
*384 mult_50_n786
*385 mult_50_n785
*386 mult_50_n784
*387 mult_50_n783
*388 mult_50_n782
*389 mult_50_n781
*390 mult_50_n780
*391 mult_50_n779
*392 mult_50_n778
*393 mult_50_n777
*394 mult_50_n776
*395 mult_50_n775
*396 mult_50_n774
*397 mult_50_n773
*398 mult_50_n772
*399 mult_50_n771
*400 mult_50_n770
*401 mult_50_n769
*402 mult_50_n768
*403 mult_50_n767
*404 mult_50_n766
*405 mult_50_n765
*406 mult_50_n764
*407 mult_50_n763
*408 mult_50_n762
*409 mult_50_n761
*410 mult_50_n760
*411 mult_50_n759
*412 mult_50_n758
*413 mult_50_n757
*414 mult_50_n756
*415 mult_50_n755
*416 mult_50_n754
*417 mult_50_n753
*418 mult_50_n752
*419 mult_50_n751
*420 mult_50_n750
*421 mult_50_n749
*422 mult_50_n748
*423 mult_50_n747
*424 mult_50_n746
*425 mult_50_n745
*426 mult_50_n744
*427 mult_50_n743
*428 mult_50_n742
*429 mult_50_n741
*430 mult_50_n740
*431 mult_50_n739
*432 mult_50_n738
*433 mult_50_n737
*434 mult_50_n736
*435 mult_50_n735
*436 mult_50_n734
*437 mult_50_n733
*438 mult_50_n732
*439 mult_50_n731
*440 mult_50_n730
*441 mult_50_n729
*442 mult_50_n728
*443 mult_50_n727
*444 mult_50_n726
*445 mult_50_n725
*446 mult_50_n724
*447 mult_50_n723
*448 mult_50_n722
*449 mult_50_n721
*450 mult_50_n720
*451 mult_50_n719
*452 mult_50_n718
*453 mult_50_n717
*454 mult_50_n716
*455 mult_50_n715
*456 mult_50_n714
*457 mult_50_n713
*458 mult_50_n712
*459 mult_50_n711
*460 mult_50_n710
*461 mult_50_n709
*462 mult_50_n708
*463 mult_50_n707
*464 mult_50_n706
*465 mult_50_n705
*466 mult_50_n704
*467 mult_50_n703
*468 mult_50_n702
*469 mult_50_n701
*470 mult_50_n700
*471 mult_50_n699
*472 mult_50_n698
*473 mult_50_n697
*474 mult_50_n696
*475 mult_50_n695
*476 mult_50_n694
*477 mult_50_n693
*478 mult_50_n692
*479 mult_50_n691
*480 mult_50_n690
*481 mult_50_n689
*482 mult_50_n688
*483 mult_50_n687
*484 mult_50_n686
*485 mult_50_n685
*486 mult_50_n684
*487 mult_50_n683
*488 mult_50_n682
*489 mult_50_n681
*490 mult_50_n680
*491 mult_50_n679
*492 mult_50_n678
*493 mult_50_n677
*494 mult_50_n676
*495 mult_50_n675
*496 mult_50_n674
*497 mult_50_n673
*498 mult_50_n672
*499 mult_50_n671
*500 mult_50_n670
*501 mult_50_n669
*502 mult_50_n668
*503 mult_50_n667
*504 mult_50_n666
*505 mult_50_n665
*506 mult_50_n664
*507 mult_50_n663
*508 mult_50_n662
*509 mult_50_n661
*510 mult_50_n660
*511 mult_50_n659
*512 mult_50_n658
*513 mult_50_n657
*514 mult_50_n656
*515 mult_50_n655
*516 mult_50_n654
*517 mult_50_n653
*518 mult_50_n652
*519 mult_50_n651
*520 mult_50_n649
*521 mult_50_n648
*522 mult_50_n647
*523 mult_50_n646
*524 mult_50_n645
*525 mult_50_n644
*526 mult_50_n643
*527 mult_50_n642
*528 mult_50_n419
*529 mult_50_n418
*530 mult_50_n417
*531 mult_50_n416
*532 mult_50_n415
*533 mult_50_n414
*534 mult_50_n413
*535 mult_50_n412
*536 mult_50_n411
*537 mult_50_n410
*538 mult_50_n409
*539 mult_50_n408
*540 mult_50_n406
*541 mult_50_n405
*542 mult_50_n404
*543 mult_50_n403
*544 mult_50_n402
*545 mult_50_n401
*546 mult_50_n400
*547 mult_50_n399
*548 mult_50_n398
*549 mult_50_n397
*550 mult_50_n396
*551 mult_50_n395
*552 mult_50_n394
*553 mult_50_n393
*554 mult_50_n392
*555 mult_50_n391
*556 mult_50_n390
*557 mult_50_n389
*558 mult_50_n388
*559 mult_50_n387
*560 mult_50_n386
*561 mult_50_n385
*562 mult_50_n384
*563 mult_50_n382
*564 mult_50_n381
*565 mult_50_n380
*566 mult_50_n379
*567 mult_50_n378
*568 mult_50_n377
*569 mult_50_n376
*570 mult_50_n375
*571 mult_50_n374
*572 mult_50_n373
*573 mult_50_n372
*574 mult_50_n371
*575 mult_50_n370
*576 mult_50_n369
*577 mult_50_n368
*578 mult_50_n367
*579 mult_50_n366
*580 mult_50_n365
*581 mult_50_n364
*582 mult_50_n363
*583 mult_50_n362
*584 mult_50_n361
*585 mult_50_n360
*586 mult_50_n359
*587 mult_50_n358
*588 mult_50_n357
*589 mult_50_n356
*590 mult_50_n355
*591 mult_50_n354
*592 mult_50_n353
*593 mult_50_n352
*594 mult_50_n351
*595 mult_50_n350
*596 mult_50_n349
*597 mult_50_n348
*598 mult_50_n346
*599 mult_50_n345
*600 mult_50_n344
*601 mult_50_n343
*602 mult_50_n342
*603 mult_50_n341
*604 mult_50_n340
*605 mult_50_n339
*606 mult_50_n338
*607 mult_50_n337
*608 mult_50_n336
*609 mult_50_n335
*610 mult_50_n334
*611 mult_50_n333
*612 mult_50_n332
*613 mult_50_n331
*614 mult_50_n330
*615 mult_50_n329
*616 mult_50_n328
*617 mult_50_n327
*618 mult_50_n326
*619 mult_50_n325
*620 mult_50_n321
*621 mult_50_n320
*622 mult_50_n319
*623 mult_50_n318
*624 mult_50_n317
*625 mult_50_n316
*626 mult_50_n315
*627 mult_50_n314
*628 mult_50_n313
*629 mult_50_n312
*630 mult_50_n311
*631 mult_50_n310
*632 mult_50_n309
*633 mult_50_n308
*634 mult_50_n307
*635 mult_50_n306
*636 mult_50_n305
*637 mult_50_n304
*638 mult_50_n303
*639 mult_50_n302
*640 mult_50_n301
*641 mult_50_n300
*642 mult_50_n299
*643 mult_50_n298
*644 mult_50_n297
*645 mult_50_n296
*646 mult_50_n295
*647 mult_50_n294
*648 mult_50_n293
*649 mult_50_n292
*650 mult_50_n291
*651 mult_50_n290
*652 mult_50_n289
*653 mult_50_n288
*654 mult_50_n287
*655 mult_50_n286
*656 mult_50_n285
*657 mult_50_n284
*658 mult_50_n283
*659 mult_50_n282
*660 mult_50_n281
*661 mult_50_n280
*662 mult_50_n279
*663 mult_50_n278
*664 mult_50_n277
*665 mult_50_n276
*666 mult_50_n275
*667 mult_50_n274
*668 mult_50_n273
*669 mult_50_n272
*670 mult_50_n271
*671 mult_50_n270
*672 mult_50_n269
*673 mult_50_n268
*674 mult_50_n267
*675 mult_50_n266
*676 mult_50_n265
*677 mult_50_n264
*678 mult_50_n263
*679 mult_50_n262
*680 mult_50_n261
*681 mult_50_n260
*682 mult_50_n259
*683 mult_50_n258
*684 mult_50_n257
*685 mult_50_n256
*686 mult_50_n255
*687 mult_50_n254
*688 mult_50_n253
*689 mult_50_n252
*690 mult_50_n251
*691 mult_50_n250
*692 mult_50_n249
*693 mult_50_n248
*694 mult_50_n247
*695 mult_50_n246
*696 mult_50_n245
*697 mult_50_n244
*698 mult_50_n243
*699 mult_50_n242
*700 mult_50_n241
*701 mult_50_n240
*702 mult_50_n239
*703 mult_50_n238
*704 mult_50_n237
*705 mult_50_n236
*706 mult_50_n235
*707 mult_50_n234
*708 mult_50_n233
*709 mult_50_n232
*710 mult_50_n231
*711 mult_50_n230
*712 mult_50_n229
*713 mult_50_n228
*714 mult_50_n227
*715 mult_50_n226
*716 mult_50_n225
*717 mult_50_n224
*718 mult_50_n223
*719 mult_50_n222
*720 mult_50_n221
*721 mult_50_n220
*722 mult_50_n219
*723 mult_50_n218
*724 mult_50_n217
*725 mult_50_n216
*726 mult_50_n215
*727 mult_50_n214
*728 mult_50_n213
*729 mult_50_n212
*730 mult_50_n211
*731 mult_50_n210
*732 mult_50_n209
*733 mult_50_n208
*734 mult_50_n207
*735 mult_50_n206
*736 mult_50_n205
*737 mult_50_n204
*738 mult_50_n203
*739 mult_50_n202
*740 mult_50_n201
*741 mult_50_n200
*742 mult_50_n199
*743 mult_50_n198
*744 mult_50_n197
*745 mult_50_n196
*746 mult_50_n195
*747 mult_50_n194
*748 mult_50_n193
*749 mult_50_n192
*750 mult_50_n191
*751 mult_50_n190
*752 mult_50_n189
*753 mult_50_n188
*754 mult_50_n187
*755 mult_50_n186
*756 mult_50_n185
*757 mult_50_n184
*758 mult_50_n183
*759 mult_50_n182
*760 mult_50_n181
*761 mult_50_n180
*762 mult_50_n179
*763 mult_50_n178
*764 mult_50_n177
*765 mult_50_n176
*766 mult_50_n175
*767 mult_50_n174
*768 mult_50_n173
*769 mult_50_n172
*770 mult_50_n171
*771 mult_50_n170
*772 mult_50_n169
*773 mult_50_n168
*774 mult_50_n167
*775 mult_50_n166
*776 mult_50_n165
*777 mult_50_n164
*778 mult_50_n163
*779 mult_50_n162
*780 mult_50_n149
*781 mult_50_n148
*782 mult_50_n147
*783 mult_50_n146
*784 mult_50_n145
*785 mult_50_n144
*786 mult_50_n143
*787 mult_50_n142
*788 mult_50_n141
*789 mult_50_n140
*790 mult_50_n139
*791 mult_50_n138
*792 mult_50_n137
*793 mult_50_n136
*794 mult_52_n805
*795 mult_52_n804
*796 mult_52_n803
*797 mult_52_n802
*798 mult_52_n801
*799 mult_52_n800
*800 mult_52_n799
*801 mult_52_n798
*802 mult_52_n797
*803 mult_52_n796
*804 mult_52_n795
*805 mult_52_n794
*806 mult_52_n793
*807 mult_52_n792
*808 mult_52_n791
*809 mult_52_n790
*810 mult_52_n789
*811 mult_52_n788
*812 mult_52_n787
*813 mult_52_n786
*814 mult_52_n785
*815 mult_52_n784
*816 mult_52_n783
*817 mult_52_n782
*818 mult_52_n781
*819 mult_52_n780
*820 mult_52_n779
*821 mult_52_n778
*822 mult_52_n777
*823 mult_52_n776
*824 mult_52_n775
*825 mult_52_n774
*826 mult_52_n773
*827 mult_52_n772
*828 mult_52_n771
*829 mult_52_n770
*830 mult_52_n769
*831 mult_52_n768
*832 mult_52_n767
*833 mult_52_n766
*834 mult_52_n765
*835 mult_52_n764
*836 mult_52_n763
*837 mult_52_n762
*838 mult_52_n761
*839 mult_52_n760
*840 mult_52_n759
*841 mult_52_n758
*842 mult_52_n757
*843 mult_52_n756
*844 mult_52_n755
*845 mult_52_n754
*846 mult_52_n753
*847 mult_52_n752
*848 mult_52_n751
*849 mult_52_n750
*850 mult_52_n749
*851 mult_52_n748
*852 mult_52_n747
*853 mult_52_n746
*854 mult_52_n745
*855 mult_52_n744
*856 mult_52_n743
*857 mult_52_n742
*858 mult_52_n741
*859 mult_52_n740
*860 mult_52_n739
*861 mult_52_n738
*862 mult_52_n737
*863 mult_52_n736
*864 mult_52_n735
*865 mult_52_n734
*866 mult_52_n733
*867 mult_52_n732
*868 mult_52_n731
*869 mult_52_n730
*870 mult_52_n729
*871 mult_52_n728
*872 mult_52_n727
*873 mult_52_n726
*874 mult_52_n725
*875 mult_52_n724
*876 mult_52_n723
*877 mult_52_n722
*878 mult_52_n721
*879 mult_52_n720
*880 mult_52_n719
*881 mult_52_n718
*882 mult_52_n717
*883 mult_52_n716
*884 mult_52_n715
*885 mult_52_n714
*886 mult_52_n713
*887 mult_52_n712
*888 mult_52_n711
*889 mult_52_n710
*890 mult_52_n709
*891 mult_52_n708
*892 mult_52_n707
*893 mult_52_n706
*894 mult_52_n705
*895 mult_52_n704
*896 mult_52_n703
*897 mult_52_n702
*898 mult_52_n701
*899 mult_52_n700
*900 mult_52_n699
*901 mult_52_n698
*902 mult_52_n697
*903 mult_52_n696
*904 mult_52_n695
*905 mult_52_n694
*906 mult_52_n693
*907 mult_52_n692
*908 mult_52_n691
*909 mult_52_n690
*910 mult_52_n689
*911 mult_52_n688
*912 mult_52_n687
*913 mult_52_n686
*914 mult_52_n685
*915 mult_52_n684
*916 mult_52_n683
*917 mult_52_n682
*918 mult_52_n681
*919 mult_52_n680
*920 mult_52_n679
*921 mult_52_n678
*922 mult_52_n677
*923 mult_52_n676
*924 mult_52_n675
*925 mult_52_n674
*926 mult_52_n673
*927 mult_52_n672
*928 mult_52_n671
*929 mult_52_n670
*930 mult_52_n669
*931 mult_52_n668
*932 mult_52_n667
*933 mult_52_n666
*934 mult_52_n665
*935 mult_52_n664
*936 mult_52_n663
*937 mult_52_n662
*938 mult_52_n661
*939 mult_52_n660
*940 mult_52_n659
*941 mult_52_n658
*942 mult_52_n657
*943 mult_52_n656
*944 mult_52_n655
*945 mult_52_n654
*946 mult_52_n653
*947 mult_52_n652
*948 mult_52_n651
*949 mult_52_n649
*950 mult_52_n648
*951 mult_52_n647
*952 mult_52_n646
*953 mult_52_n645
*954 mult_52_n644
*955 mult_52_n643
*956 mult_52_n642
*957 mult_52_n419
*958 mult_52_n418
*959 mult_52_n417
*960 mult_52_n416
*961 mult_52_n415
*962 mult_52_n414
*963 mult_52_n413
*964 mult_52_n412
*965 mult_52_n411
*966 mult_52_n410
*967 mult_52_n409
*968 mult_52_n408
*969 mult_52_n406
*970 mult_52_n405
*971 mult_52_n404
*972 mult_52_n403
*973 mult_52_n402
*974 mult_52_n401
*975 mult_52_n400
*976 mult_52_n399
*977 mult_52_n398
*978 mult_52_n397
*979 mult_52_n396
*980 mult_52_n395
*981 mult_52_n394
*982 mult_52_n393
*983 mult_52_n392
*984 mult_52_n391
*985 mult_52_n390
*986 mult_52_n389
*987 mult_52_n388
*988 mult_52_n387
*989 mult_52_n386
*990 mult_52_n385
*991 mult_52_n384
*992 mult_52_n382
*993 mult_52_n381
*994 mult_52_n380
*995 mult_52_n379
*996 mult_52_n378
*997 mult_52_n377
*998 mult_52_n376
*999 mult_52_n375
*1000 mult_52_n374
*1001 mult_52_n373
*1002 mult_52_n372
*1003 mult_52_n371
*1004 mult_52_n370
*1005 mult_52_n369
*1006 mult_52_n368
*1007 mult_52_n367
*1008 mult_52_n366
*1009 mult_52_n365
*1010 mult_52_n364
*1011 mult_52_n363
*1012 mult_52_n362
*1013 mult_52_n361
*1014 mult_52_n360
*1015 mult_52_n359
*1016 mult_52_n358
*1017 mult_52_n357
*1018 mult_52_n356
*1019 mult_52_n355
*1020 mult_52_n354
*1021 mult_52_n353
*1022 mult_52_n352
*1023 mult_52_n351
*1024 mult_52_n350
*1025 mult_52_n349
*1026 mult_52_n348
*1027 mult_52_n346
*1028 mult_52_n345
*1029 mult_52_n344
*1030 mult_52_n343
*1031 mult_52_n342
*1032 mult_52_n341
*1033 mult_52_n340
*1034 mult_52_n339
*1035 mult_52_n338
*1036 mult_52_n337
*1037 mult_52_n336
*1038 mult_52_n335
*1039 mult_52_n334
*1040 mult_52_n333
*1041 mult_52_n332
*1042 mult_52_n331
*1043 mult_52_n330
*1044 mult_52_n329
*1045 mult_52_n328
*1046 mult_52_n327
*1047 mult_52_n326
*1048 mult_52_n325
*1049 mult_52_n321
*1050 mult_52_n320
*1051 mult_52_n319
*1052 mult_52_n318
*1053 mult_52_n317
*1054 mult_52_n316
*1055 mult_52_n315
*1056 mult_52_n314
*1057 mult_52_n313
*1058 mult_52_n312
*1059 mult_52_n311
*1060 mult_52_n310
*1061 mult_52_n309
*1062 mult_52_n308
*1063 mult_52_n307
*1064 mult_52_n306
*1065 mult_52_n305
*1066 mult_52_n304
*1067 mult_52_n303
*1068 mult_52_n302
*1069 mult_52_n301
*1070 mult_52_n300
*1071 mult_52_n299
*1072 mult_52_n298
*1073 mult_52_n297
*1074 mult_52_n296
*1075 mult_52_n295
*1076 mult_52_n294
*1077 mult_52_n293
*1078 mult_52_n292
*1079 mult_52_n291
*1080 mult_52_n290
*1081 mult_52_n289
*1082 mult_52_n288
*1083 mult_52_n287
*1084 mult_52_n286
*1085 mult_52_n285
*1086 mult_52_n284
*1087 mult_52_n283
*1088 mult_52_n282
*1089 mult_52_n281
*1090 mult_52_n280
*1091 mult_52_n279
*1092 mult_52_n278
*1093 mult_52_n277
*1094 mult_52_n276
*1095 mult_52_n275
*1096 mult_52_n274
*1097 mult_52_n273
*1098 mult_52_n272
*1099 mult_52_n271
*1100 mult_52_n270
*1101 mult_52_n269
*1102 mult_52_n268
*1103 mult_52_n267
*1104 mult_52_n266
*1105 mult_52_n265
*1106 mult_52_n264
*1107 mult_52_n263
*1108 mult_52_n262
*1109 mult_52_n261
*1110 mult_52_n260
*1111 mult_52_n259
*1112 mult_52_n258
*1113 mult_52_n257
*1114 mult_52_n256
*1115 mult_52_n255
*1116 mult_52_n254
*1117 mult_52_n253
*1118 mult_52_n252
*1119 mult_52_n251
*1120 mult_52_n250
*1121 mult_52_n249
*1122 mult_52_n248
*1123 mult_52_n247
*1124 mult_52_n246
*1125 mult_52_n245
*1126 mult_52_n244
*1127 mult_52_n243
*1128 mult_52_n242
*1129 mult_52_n241
*1130 mult_52_n240
*1131 mult_52_n239
*1132 mult_52_n238
*1133 mult_52_n237
*1134 mult_52_n236
*1135 mult_52_n235
*1136 mult_52_n234
*1137 mult_52_n233
*1138 mult_52_n232
*1139 mult_52_n231
*1140 mult_52_n230
*1141 mult_52_n229
*1142 mult_52_n228
*1143 mult_52_n227
*1144 mult_52_n226
*1145 mult_52_n225
*1146 mult_52_n224
*1147 mult_52_n223
*1148 mult_52_n222
*1149 mult_52_n221
*1150 mult_52_n220
*1151 mult_52_n219
*1152 mult_52_n218
*1153 mult_52_n217
*1154 mult_52_n216
*1155 mult_52_n215
*1156 mult_52_n214
*1157 mult_52_n213
*1158 mult_52_n212
*1159 mult_52_n211
*1160 mult_52_n210
*1161 mult_52_n209
*1162 mult_52_n208
*1163 mult_52_n207
*1164 mult_52_n206
*1165 mult_52_n205
*1166 mult_52_n204
*1167 mult_52_n203
*1168 mult_52_n202
*1169 mult_52_n201
*1170 mult_52_n200
*1171 mult_52_n199
*1172 mult_52_n198
*1173 mult_52_n197
*1174 mult_52_n196
*1175 mult_52_n195
*1176 mult_52_n194
*1177 mult_52_n193
*1178 mult_52_n192
*1179 mult_52_n191
*1180 mult_52_n190
*1181 mult_52_n189
*1182 mult_52_n188
*1183 mult_52_n187
*1184 mult_52_n186
*1185 mult_52_n185
*1186 mult_52_n184
*1187 mult_52_n183
*1188 mult_52_n182
*1189 mult_52_n181
*1190 mult_52_n180
*1191 mult_52_n179
*1192 mult_52_n178
*1193 mult_52_n177
*1194 mult_52_n176
*1195 mult_52_n175
*1196 mult_52_n174
*1197 mult_52_n173
*1198 mult_52_n172
*1199 mult_52_n171
*1200 mult_52_n170
*1201 mult_52_n169
*1202 mult_52_n168
*1203 mult_52_n167
*1204 mult_52_n166
*1205 mult_52_n165
*1206 mult_52_n164
*1207 mult_52_n163
*1208 mult_52_n162
*1209 mult_52_n149
*1210 mult_52_n148
*1211 mult_52_n147
*1212 mult_52_n146
*1213 mult_52_n145
*1214 mult_52_n144
*1215 mult_52_n143
*1216 mult_52_n142
*1217 mult_52_n141
*1218 mult_52_n140
*1219 mult_52_n139
*1220 mult_52_n138
*1221 mult_52_n137
*1222 mult_52_n136
*1223 add_1_root_add_0_root_add_59_carry_1_
*1224 add_1_root_add_0_root_add_59_carry_2_
*1225 add_1_root_add_0_root_add_59_carry_3_
*1226 add_1_root_add_0_root_add_59_carry_4_
*1227 add_1_root_add_0_root_add_59_carry_5_
*1228 add_1_root_add_0_root_add_59_carry_6_
*1229 add_1_root_add_0_root_add_59_carry_7_
*1230 add_1_root_add_0_root_add_59_carry_8_
*1231 add_1_root_add_0_root_add_59_carry_9_
*1232 add_1_root_add_0_root_add_59_carry_10_
*1233 add_1_root_add_0_root_add_59_carry_11_
*1234 add_1_root_add_0_root_add_59_carry_12_
*1235 add_1_root_add_0_root_add_59_carry_13_
*1236 mult_54_n805
*1237 mult_54_n804
*1238 mult_54_n803
*1239 mult_54_n802
*1240 mult_54_n801
*1241 mult_54_n800
*1242 mult_54_n799
*1243 mult_54_n798
*1244 mult_54_n797
*1245 mult_54_n796
*1246 mult_54_n795
*1247 mult_54_n794
*1248 mult_54_n793
*1249 mult_54_n792
*1250 mult_54_n791
*1251 mult_54_n790
*1252 mult_54_n789
*1253 mult_54_n788
*1254 mult_54_n787
*1255 mult_54_n786
*1256 mult_54_n785
*1257 mult_54_n784
*1258 mult_54_n783
*1259 mult_54_n782
*1260 mult_54_n781
*1261 mult_54_n780
*1262 mult_54_n779
*1263 mult_54_n778
*1264 mult_54_n777
*1265 mult_54_n776
*1266 mult_54_n775
*1267 mult_54_n774
*1268 mult_54_n773
*1269 mult_54_n772
*1270 mult_54_n771
*1271 mult_54_n770
*1272 mult_54_n769
*1273 mult_54_n768
*1274 mult_54_n767
*1275 mult_54_n766
*1276 mult_54_n765
*1277 mult_54_n764
*1278 mult_54_n763
*1279 mult_54_n762
*1280 mult_54_n761
*1281 mult_54_n760
*1282 mult_54_n759
*1283 mult_54_n758
*1284 mult_54_n757
*1285 mult_54_n756
*1286 mult_54_n755
*1287 mult_54_n754
*1288 mult_54_n753
*1289 mult_54_n752
*1290 mult_54_n751
*1291 mult_54_n750
*1292 mult_54_n749
*1293 mult_54_n748
*1294 mult_54_n747
*1295 mult_54_n746
*1296 mult_54_n745
*1297 mult_54_n744
*1298 mult_54_n743
*1299 mult_54_n742
*1300 mult_54_n741
*1301 mult_54_n740
*1302 mult_54_n739
*1303 mult_54_n738
*1304 mult_54_n737
*1305 mult_54_n736
*1306 mult_54_n735
*1307 mult_54_n734
*1308 mult_54_n733
*1309 mult_54_n732
*1310 mult_54_n731
*1311 mult_54_n730
*1312 mult_54_n729
*1313 mult_54_n728
*1314 mult_54_n727
*1315 mult_54_n726
*1316 mult_54_n725
*1317 mult_54_n724
*1318 mult_54_n723
*1319 mult_54_n722
*1320 mult_54_n721
*1321 mult_54_n720
*1322 mult_54_n719
*1323 mult_54_n718
*1324 mult_54_n717
*1325 mult_54_n716
*1326 mult_54_n715
*1327 mult_54_n714
*1328 mult_54_n713
*1329 mult_54_n712
*1330 mult_54_n711
*1331 mult_54_n710
*1332 mult_54_n709
*1333 mult_54_n708
*1334 mult_54_n707
*1335 mult_54_n706
*1336 mult_54_n705
*1337 mult_54_n704
*1338 mult_54_n703
*1339 mult_54_n702
*1340 mult_54_n701
*1341 mult_54_n700
*1342 mult_54_n699
*1343 mult_54_n698
*1344 mult_54_n697
*1345 mult_54_n696
*1346 mult_54_n695
*1347 mult_54_n694
*1348 mult_54_n693
*1349 mult_54_n692
*1350 mult_54_n691
*1351 mult_54_n690
*1352 mult_54_n689
*1353 mult_54_n688
*1354 mult_54_n687
*1355 mult_54_n686
*1356 mult_54_n685
*1357 mult_54_n684
*1358 mult_54_n683
*1359 mult_54_n682
*1360 mult_54_n681
*1361 mult_54_n680
*1362 mult_54_n679
*1363 mult_54_n678
*1364 mult_54_n677
*1365 mult_54_n676
*1366 mult_54_n675
*1367 mult_54_n674
*1368 mult_54_n673
*1369 mult_54_n672
*1370 mult_54_n671
*1371 mult_54_n670
*1372 mult_54_n669
*1373 mult_54_n668
*1374 mult_54_n667
*1375 mult_54_n666
*1376 mult_54_n665
*1377 mult_54_n664
*1378 mult_54_n663
*1379 mult_54_n662
*1380 mult_54_n661
*1381 mult_54_n660
*1382 mult_54_n659
*1383 mult_54_n658
*1384 mult_54_n657
*1385 mult_54_n656
*1386 mult_54_n655
*1387 mult_54_n654
*1388 mult_54_n653
*1389 mult_54_n652
*1390 mult_54_n651
*1391 mult_54_n650
*1392 mult_54_n649
*1393 mult_54_n648
*1394 mult_54_n647
*1395 mult_54_n646
*1396 mult_54_n645
*1397 mult_54_n644
*1398 mult_54_n643
*1399 mult_54_n642
*1400 mult_54_n641
*1401 mult_54_n640
*1402 mult_54_n639
*1403 mult_54_n638
*1404 mult_54_n637
*1405 mult_54_n636
*1406 mult_54_n635
*1407 mult_54_n419
*1408 mult_54_n418
*1409 mult_54_n417
*1410 mult_54_n416
*1411 mult_54_n415
*1412 mult_54_n414
*1413 mult_54_n413
*1414 mult_54_n412
*1415 mult_54_n411
*1416 mult_54_n410
*1417 mult_54_n409
*1418 mult_54_n408
*1419 mult_54_n406
*1420 mult_54_n405
*1421 mult_54_n404
*1422 mult_54_n403
*1423 mult_54_n402
*1424 mult_54_n401
*1425 mult_54_n400
*1426 mult_54_n399
*1427 mult_54_n398
*1428 mult_54_n397
*1429 mult_54_n396
*1430 mult_54_n395
*1431 mult_54_n394
*1432 mult_54_n393
*1433 mult_54_n392
*1434 mult_54_n391
*1435 mult_54_n390
*1436 mult_54_n389
*1437 mult_54_n388
*1438 mult_54_n387
*1439 mult_54_n386
*1440 mult_54_n385
*1441 mult_54_n384
*1442 mult_54_n382
*1443 mult_54_n381
*1444 mult_54_n380
*1445 mult_54_n379
*1446 mult_54_n378
*1447 mult_54_n377
*1448 mult_54_n376
*1449 mult_54_n375
*1450 mult_54_n374
*1451 mult_54_n373
*1452 mult_54_n372
*1453 mult_54_n371
*1454 mult_54_n370
*1455 mult_54_n369
*1456 mult_54_n368
*1457 mult_54_n367
*1458 mult_54_n366
*1459 mult_54_n365
*1460 mult_54_n364
*1461 mult_54_n363
*1462 mult_54_n362
*1463 mult_54_n361
*1464 mult_54_n360
*1465 mult_54_n359
*1466 mult_54_n358
*1467 mult_54_n357
*1468 mult_54_n356
*1469 mult_54_n355
*1470 mult_54_n354
*1471 mult_54_n353
*1472 mult_54_n352
*1473 mult_54_n351
*1474 mult_54_n350
*1475 mult_54_n349
*1476 mult_54_n348
*1477 mult_54_n346
*1478 mult_54_n345
*1479 mult_54_n344
*1480 mult_54_n343
*1481 mult_54_n342
*1482 mult_54_n341
*1483 mult_54_n340
*1484 mult_54_n339
*1485 mult_54_n338
*1486 mult_54_n337
*1487 mult_54_n336
*1488 mult_54_n335
*1489 mult_54_n334
*1490 mult_54_n333
*1491 mult_54_n332
*1492 mult_54_n331
*1493 mult_54_n330
*1494 mult_54_n329
*1495 mult_54_n328
*1496 mult_54_n327
*1497 mult_54_n326
*1498 mult_54_n325
*1499 mult_54_n321
*1500 mult_54_n320
*1501 mult_54_n319
*1502 mult_54_n318
*1503 mult_54_n317
*1504 mult_54_n316
*1505 mult_54_n315
*1506 mult_54_n314
*1507 mult_54_n313
*1508 mult_54_n312
*1509 mult_54_n311
*1510 mult_54_n310
*1511 mult_54_n309
*1512 mult_54_n308
*1513 mult_54_n307
*1514 mult_54_n306
*1515 mult_54_n305
*1516 mult_54_n304
*1517 mult_54_n303
*1518 mult_54_n302
*1519 mult_54_n301
*1520 mult_54_n300
*1521 mult_54_n299
*1522 mult_54_n298
*1523 mult_54_n297
*1524 mult_54_n296
*1525 mult_54_n295
*1526 mult_54_n294
*1527 mult_54_n293
*1528 mult_54_n292
*1529 mult_54_n291
*1530 mult_54_n290
*1531 mult_54_n289
*1532 mult_54_n288
*1533 mult_54_n287
*1534 mult_54_n286
*1535 mult_54_n285
*1536 mult_54_n284
*1537 mult_54_n283
*1538 mult_54_n282
*1539 mult_54_n281
*1540 mult_54_n280
*1541 mult_54_n279
*1542 mult_54_n278
*1543 mult_54_n277
*1544 mult_54_n276
*1545 mult_54_n275
*1546 mult_54_n274
*1547 mult_54_n273
*1548 mult_54_n272
*1549 mult_54_n271
*1550 mult_54_n270
*1551 mult_54_n269
*1552 mult_54_n268
*1553 mult_54_n267
*1554 mult_54_n266
*1555 mult_54_n265
*1556 mult_54_n264
*1557 mult_54_n263
*1558 mult_54_n262
*1559 mult_54_n261
*1560 mult_54_n260
*1561 mult_54_n259
*1562 mult_54_n258
*1563 mult_54_n257
*1564 mult_54_n256
*1565 mult_54_n255
*1566 mult_54_n254
*1567 mult_54_n253
*1568 mult_54_n252
*1569 mult_54_n251
*1570 mult_54_n250
*1571 mult_54_n249
*1572 mult_54_n248
*1573 mult_54_n247
*1574 mult_54_n246
*1575 mult_54_n245
*1576 mult_54_n244
*1577 mult_54_n243
*1578 mult_54_n242
*1579 mult_54_n241
*1580 mult_54_n240
*1581 mult_54_n239
*1582 mult_54_n238
*1583 mult_54_n237
*1584 mult_54_n236
*1585 mult_54_n235
*1586 mult_54_n234
*1587 mult_54_n233
*1588 mult_54_n232
*1589 mult_54_n231
*1590 mult_54_n230
*1591 mult_54_n229
*1592 mult_54_n228
*1593 mult_54_n227
*1594 mult_54_n226
*1595 mult_54_n225
*1596 mult_54_n224
*1597 mult_54_n223
*1598 mult_54_n222
*1599 mult_54_n221
*1600 mult_54_n220
*1601 mult_54_n219
*1602 mult_54_n218
*1603 mult_54_n217
*1604 mult_54_n216
*1605 mult_54_n215
*1606 mult_54_n214
*1607 mult_54_n213
*1608 mult_54_n212
*1609 mult_54_n211
*1610 mult_54_n210
*1611 mult_54_n209
*1612 mult_54_n208
*1613 mult_54_n207
*1614 mult_54_n206
*1615 mult_54_n205
*1616 mult_54_n204
*1617 mult_54_n203
*1618 mult_54_n202
*1619 mult_54_n201
*1620 mult_54_n200
*1621 mult_54_n199
*1622 mult_54_n198
*1623 mult_54_n197
*1624 mult_54_n196
*1625 mult_54_n195
*1626 mult_54_n194
*1627 mult_54_n193
*1628 mult_54_n192
*1629 mult_54_n191
*1630 mult_54_n190
*1631 mult_54_n189
*1632 mult_54_n188
*1633 mult_54_n187
*1634 mult_54_n186
*1635 mult_54_n185
*1636 mult_54_n184
*1637 mult_54_n183
*1638 mult_54_n182
*1639 mult_54_n181
*1640 mult_54_n180
*1641 mult_54_n179
*1642 mult_54_n178
*1643 mult_54_n177
*1644 mult_54_n176
*1645 mult_54_n175
*1646 mult_54_n174
*1647 mult_54_n173
*1648 mult_54_n172
*1649 mult_54_n171
*1650 mult_54_n170
*1651 mult_54_n169
*1652 mult_54_n168
*1653 mult_54_n167
*1654 mult_54_n166
*1655 mult_54_n165
*1656 mult_54_n164
*1657 mult_54_n163
*1658 mult_54_n162
*1659 mult_54_n149
*1660 mult_54_n148
*1661 mult_54_n147
*1662 mult_54_n146
*1663 mult_54_n145
*1664 mult_54_n144
*1665 mult_54_n143
*1666 mult_54_n142
*1667 mult_54_n141
*1668 mult_54_n140
*1669 mult_54_n139
*1670 mult_54_n138
*1671 mult_54_n137
*1672 mult_54_n136
*1673 add_0_root_add_0_root_add_59_carry_1_
*1674 add_0_root_add_0_root_add_59_carry_2_
*1675 add_0_root_add_0_root_add_59_carry_3_
*1676 add_0_root_add_0_root_add_59_carry_4_
*1677 add_0_root_add_0_root_add_59_carry_5_
*1678 add_0_root_add_0_root_add_59_carry_6_
*1679 add_0_root_add_0_root_add_59_carry_7_
*1680 add_0_root_add_0_root_add_59_carry_8_
*1681 add_0_root_add_0_root_add_59_carry_9_
*1682 add_0_root_add_0_root_add_59_carry_10_
*1683 add_0_root_add_0_root_add_59_carry_11_
*1684 add_0_root_add_0_root_add_59_carry_12_
*1685 add_0_root_add_0_root_add_59_carry_13_
*1686 mult_46_n812
*1687 mult_46_n811
*1688 mult_46_n810
*1689 mult_46_n809
*1690 mult_46_n808
*1691 mult_46_n807
*1692 mult_46_n805
*1693 mult_46_n804
*1694 mult_46_n803